# File generated by Flopy version 3.8.2 on 11/07/2024 at 18:43:43.
BEGIN options
  SAVE_FLOWS
END options

BEGIN packages
  DIS6  EPM_wsgrid.dis  dis
  IC6  EPM_wsgrid.ic  ic
  NPF6  EPM_wsgrid.npf  npf
  CHD6  EPM_wsgrid.chd  chd_0
  RCH6  EPM_wsgrid.rcha  rcha_0
  OC6  EPM_wsgrid.oc  oc
END packages

