# File generated by Flopy version 3.8.2 on 11/20/2024 at 12:14:15.
BEGIN options
END options

BEGIN griddata
  strt  LAYERED
    INTERNAL  FACTOR  1.0
           0.00000000       0.00000000       0.00000000       0.00000000       0.00000000       0.00000000       0.00000000       0.00000000       0.00000000       0.00000000       0.00000000       0.00000000       0.00000000       0.00000000       0.00000000       0.00000000       0.00000000       0.00000000       0.00000000       0.00000000       0.00000000       0.00000000       0.00000000       0.00000000       0.00000000       0.00000000       0.00000000       0.00000000       0.00000000       0.00000000       0.00000000       0.00000000       0.00000000       0.00000000       0.00000000       0.00000000       0.00000000       0.00000000       0.00000000       0.00000000       0.00000000       0.00000000       0.00000000       0.00000000       0.00000000       0.00000000       0.00000000       0.00000000       0.00000000       0.00000000
           0.00000000       0.00000000       0.00000000       0.00000000       0.00000000       0.00000000       0.00000000       0.00000000       0.00000000       0.00000000       0.00000000       0.00000000       0.00000000       0.00000000       0.00000000       0.00000000       0.00000000       0.00000000       0.00000000       0.00000000       0.00000000       0.00000000       0.00000000       0.00000000       0.00000000       0.00000000       0.00000000       0.00000000       0.00000000       0.00000000     393.79144287     393.63821411     393.28955078       0.00000000       0.00000000       0.00000000       0.00000000       0.00000000       0.00000000       0.00000000       0.00000000       0.00000000       0.00000000       0.00000000       0.00000000       0.00000000       0.00000000       0.00000000       0.00000000       0.00000000
           0.00000000       0.00000000       0.00000000       0.00000000       0.00000000       0.00000000       0.00000000       0.00000000       0.00000000       0.00000000       0.00000000       0.00000000       0.00000000       0.00000000       0.00000000       0.00000000       0.00000000       0.00000000       0.00000000       0.00000000       0.00000000       0.00000000       0.00000000       0.00000000       0.00000000       0.00000000       0.00000000       0.00000000       0.00000000     393.25347900     392.86630249     392.65621948     392.78793335       0.00000000       0.00000000       0.00000000       0.00000000       0.00000000       0.00000000       0.00000000       0.00000000       0.00000000       0.00000000       0.00000000       0.00000000       0.00000000       0.00000000       0.00000000       0.00000000       0.00000000
           0.00000000       0.00000000       0.00000000       0.00000000       0.00000000       0.00000000       0.00000000       0.00000000       0.00000000       0.00000000       0.00000000       0.00000000       0.00000000       0.00000000       0.00000000       0.00000000       0.00000000       0.00000000       0.00000000       0.00000000       0.00000000       0.00000000       0.00000000       0.00000000       0.00000000       0.00000000       0.00000000       0.00000000     391.98727417     392.76123047     391.95407104     391.36737061     391.76538086     392.78906250     393.54986572       0.00000000       0.00000000       0.00000000       0.00000000       0.00000000       0.00000000       0.00000000       0.00000000       0.00000000       0.00000000       0.00000000       0.00000000       0.00000000       0.00000000       0.00000000
           0.00000000       0.00000000       0.00000000       0.00000000       0.00000000       0.00000000       0.00000000       0.00000000       0.00000000       0.00000000       0.00000000       0.00000000       0.00000000       0.00000000       0.00000000       0.00000000       0.00000000       0.00000000       0.00000000       0.00000000       0.00000000       0.00000000       0.00000000       0.00000000       0.00000000       0.00000000       0.00000000     390.16192627     391.32150269     392.03408813     390.92111206     390.33483887     391.36413574     392.83187866     393.43997192     393.60116577     393.22497559     392.41351318     391.44345093       0.00000000       0.00000000       0.00000000       0.00000000       0.00000000       0.00000000       0.00000000       0.00000000       0.00000000       0.00000000       0.00000000
           0.00000000       0.00000000       0.00000000       0.00000000       0.00000000       0.00000000       0.00000000       0.00000000       0.00000000       0.00000000       0.00000000       0.00000000       0.00000000       0.00000000       0.00000000       0.00000000       0.00000000       0.00000000       0.00000000       0.00000000       0.00000000       0.00000000       0.00000000       0.00000000       0.00000000       0.00000000       0.00000000     389.94830322     390.56951904     390.52233887     389.53887939     389.89352417     391.35824585     392.36389160     392.94891357     393.81570435     393.59698486     392.62741089     391.49926758     390.63299561       0.00000000       0.00000000       0.00000000       0.00000000       0.00000000       0.00000000       0.00000000       0.00000000       0.00000000       0.00000000
           0.00000000       0.00000000       0.00000000       0.00000000       0.00000000       0.00000000       0.00000000       0.00000000       0.00000000       0.00000000       0.00000000       0.00000000       0.00000000       0.00000000       0.00000000       0.00000000       0.00000000       0.00000000       0.00000000       0.00000000       0.00000000       0.00000000       0.00000000       0.00000000       0.00000000       0.00000000     388.09362793     388.10021973     388.36251831     388.18185425     388.13476562     389.19445801     390.35815430     391.23251343     392.24740601     393.13333130     393.27212524     392.69714355     391.38955688     390.28146362       0.00000000       0.00000000       0.00000000       0.00000000       0.00000000       0.00000000       0.00000000       0.00000000       0.00000000       0.00000000
           0.00000000       0.00000000       0.00000000       0.00000000       0.00000000       0.00000000       0.00000000       0.00000000       0.00000000       0.00000000       0.00000000       0.00000000       0.00000000       0.00000000       0.00000000       0.00000000       0.00000000       0.00000000       0.00000000       0.00000000       0.00000000       0.00000000       0.00000000       0.00000000       0.00000000       0.00000000       0.00000000     386.37246704     386.58459473     386.80319214     387.77481079     389.04260254     390.24661255     391.43447876     392.10595703     392.26687622     392.14126587     391.82809448     390.64733887     389.87030029       0.00000000       0.00000000       0.00000000       0.00000000       0.00000000       0.00000000       0.00000000       0.00000000       0.00000000       0.00000000
           0.00000000       0.00000000       0.00000000       0.00000000       0.00000000       0.00000000       0.00000000       0.00000000       0.00000000       0.00000000       0.00000000       0.00000000       0.00000000       0.00000000       0.00000000       0.00000000       0.00000000       0.00000000       0.00000000       0.00000000       0.00000000       0.00000000       0.00000000       0.00000000       0.00000000       0.00000000       0.00000000     385.21667480     385.57006836     386.65396118     387.98397827     389.38015747     390.68765259     392.02456665     392.31378174     391.99893188     391.47305298     390.80310059     389.86517334     389.77142334       0.00000000       0.00000000       0.00000000       0.00000000       0.00000000       0.00000000       0.00000000       0.00000000       0.00000000       0.00000000
           0.00000000       0.00000000       0.00000000       0.00000000       0.00000000       0.00000000       0.00000000     378.19070435     378.25573730     379.35098267       0.00000000       0.00000000       0.00000000       0.00000000       0.00000000       0.00000000       0.00000000       0.00000000       0.00000000       0.00000000       0.00000000       0.00000000       0.00000000       0.00000000       0.00000000       0.00000000     385.82244873     384.81033325     385.86105347     387.37472534     388.17666626     389.05325317     390.24935913     391.71237183     392.18582153     391.54849243     391.09130859     390.07138062     389.87686157     390.59597778       0.00000000       0.00000000       0.00000000       0.00000000       0.00000000       0.00000000       0.00000000       0.00000000       0.00000000       0.00000000
           0.00000000       0.00000000       0.00000000       0.00000000       0.00000000       0.00000000       0.00000000     375.05450439     375.67776489     377.39660645     379.53186035     380.14279175     381.92733765       0.00000000       0.00000000       0.00000000       0.00000000       0.00000000       0.00000000       0.00000000       0.00000000       0.00000000     385.48077393     385.73315430     385.99844360     385.46459961     384.37075806     384.66662598     386.62811279     387.92285156     388.93225098     389.63226318     390.61523438     391.56469727     391.93295288     391.05282593     390.27899170     389.54214478     390.55609131     391.85177612     391.98809814       0.00000000       0.00000000       0.00000000       0.00000000       0.00000000       0.00000000       0.00000000       0.00000000       0.00000000
           0.00000000       0.00000000       0.00000000       0.00000000       0.00000000       0.00000000       0.00000000     372.18264771     373.90338135     376.82946777     378.36166382     379.77926636     382.12438965     383.71307373       0.00000000       0.00000000       0.00000000     384.33474731       0.00000000       0.00000000       0.00000000     386.02023315     385.07696533     384.40771484     384.97430420     384.11309814     383.19335938     384.10778809     386.49652100     388.13015747     388.99310303     389.89752197     390.59536743     391.13763428     391.03652954     390.38317871     389.35635376     389.12347412     390.39340210     391.78674316     392.61886597       0.00000000       0.00000000       0.00000000       0.00000000       0.00000000       0.00000000       0.00000000       0.00000000       0.00000000
           0.00000000       0.00000000       0.00000000       0.00000000       0.00000000       0.00000000       0.00000000       0.00000000     371.50042725     374.30700684     377.79055786     379.92736816     382.17242432     382.62084961     382.00646973     382.85604858     382.87527466     383.83474731     385.64282227     386.06753540     385.84857178     385.36245728     384.36911011     383.76046753     384.31048584     383.39230347     382.69525146     383.50521851     385.49743652     387.48150635     388.42776489     389.38571167     390.17160034     390.51559448     390.25747681     389.73080444     388.98443604     389.52081299     390.35461426     391.36462402     392.30355835       0.00000000       0.00000000       0.00000000       0.00000000       0.00000000       0.00000000       0.00000000       0.00000000       0.00000000
           0.00000000     385.25683594     383.86010742       0.00000000       0.00000000       0.00000000     373.42358398     374.92291260     374.32528687     372.66888428     376.92611694     379.72940063     381.51440430     380.95358276     379.75595093     380.69210815     381.30523682     383.28042603     385.45828247     385.92416382     385.52294922     384.90600586     382.90795898     382.38226318     383.18667603     382.49783325     382.17691040     383.35418701     384.80191040     385.80383301     386.98089600     388.44973755     389.32348633     389.45803833     389.14385986     388.31106567     388.22189331     389.51693726     390.31570435     391.03695679     391.92303467       0.00000000       0.00000000       0.00000000       0.00000000       0.00000000       0.00000000       0.00000000       0.00000000       0.00000000
           0.00000000     385.20489502     382.92593384     380.03991699     376.29537964     377.70834351     378.57699585     379.67031860     378.72088623     373.13317871     375.53826904     378.54598999     379.89651489     379.11764526     377.65264893     378.16226196     379.60708618     381.77859497     383.34579468     383.92550659     383.07260132     381.73562622     380.47665405     380.32846069     380.82153320     381.20751953     382.54104614     383.67163086     384.09887695     385.01501465     386.61383057     387.73809814     388.35821533     388.54122925     388.36248779     387.45565796     388.16574097     389.45962524     390.16839600     390.79010010     391.36166382     391.72265625       0.00000000       0.00000000       0.00000000       0.00000000       0.00000000       0.00000000       0.00000000       0.00000000
           0.00000000       0.00000000     383.52413940     380.09042358     377.84756470     380.17987061     381.78622437     382.23992920     381.62677002     375.85180664     373.30157471     375.70840454     377.40768433     377.09197998     376.32354736     377.14639282     378.11337280     378.77221680     379.45907593     379.81021118     379.58551025     379.92178345     381.25814819     382.17562866     381.79794312     381.23419189     381.72637939     382.72000122     383.18557739     384.72595215     386.67950439     387.53045654     387.91525269     388.00799561     387.38284302     387.23114014     388.69039917     390.06692505     390.97225952     391.49441528     391.78698730     391.87115479       0.00000000       0.00000000       0.00000000       0.00000000       0.00000000       0.00000000       0.00000000       0.00000000
           0.00000000     385.28125000     382.70227051     379.93630981     380.57324219     382.34442139     383.84741211     383.89410400     382.35189819     377.66787720     374.86596680     373.82434082     375.28286743     375.62976074     375.39212036     375.94128418     376.39486694     377.36392212     378.72622681     379.82934570     381.55944824     383.71697998     385.40835571     386.29513550     386.05416870     384.10006714     382.59857178     382.07727051     382.57763672     383.97253418     385.40020752     386.33847046     386.82873535     386.63882446     386.65100098     387.88497925     389.52288818     390.55004883     391.05551147     391.71051025     392.22604370     392.43649292       0.00000000       0.00000000       0.00000000       0.00000000       0.00000000       0.00000000       0.00000000       0.00000000
           0.00000000     384.20663452     382.10684204     381.35754395     382.30526733     384.29281616     385.16986084     384.36560059     380.77725220     379.71420288     380.29937744     376.87850952     374.18347168     374.12536621     374.47988892     375.41766357     376.60925293     380.14739990     382.79614258     384.34286499     385.39328003     387.16528320     387.89364624     388.38378906     388.95690918     387.98757935     385.75149536     383.72579956     383.06756592     383.27877808     383.93011475     384.72668457     385.27429199     385.77984619     387.55410767     389.30465698     390.30111694     391.14730835     391.63504028     392.08599854     392.64007568     392.88854980       0.00000000       0.00000000       0.00000000       0.00000000       0.00000000       0.00000000       0.00000000       0.00000000
           0.00000000     385.03488159     384.87814331     383.88504028     383.50357056     384.99798584     385.63784790     384.56402588     381.21499634     383.12945557     383.38717651     381.51675415     378.90750122     376.42944336     375.61163330     376.54031372     376.89846802     379.91152954     383.39785767     385.88470459     387.13470459     387.97198486     388.72229004     389.13687134     389.47207642     389.31671143     387.41064453     386.55389404     385.60919189     383.88879395     383.60668945     383.93090820     384.53997803     386.31988525     388.51312256     389.92929077     390.99340820     391.69754028     392.15673828     392.40243530     392.78793335     393.09124756     393.14431763       0.00000000       0.00000000       0.00000000       0.00000000       0.00000000       0.00000000       0.00000000
           0.00000000       0.00000000     386.57031250     385.63796997     384.70535278     385.14459229     385.30371094     384.16854858     382.12280273     384.91989136     385.67721558     384.59478760     382.42251587     379.56045532     377.01962280     378.13977051     378.26843262     378.96643066     382.80624390     385.42041016     387.13208008     388.05578613     388.84448242     389.50463867     389.64682007     390.04934692     388.75213623     388.15902710     388.39617920     386.48812866     385.48748779     384.76409912     384.53927612     385.57943726     387.59191895     388.99774170     390.31884766     391.31219482     391.91653442     392.51901245     392.87539673     393.19140625     393.42187500       0.00000000       0.00000000       0.00000000       0.00000000       0.00000000       0.00000000       0.00000000
           0.00000000       0.00000000     386.52978516     385.92987061     385.65753174     385.60781860     384.84179688     383.87234497     382.69076538     385.16381836     387.27407837     386.73651123     383.37438965     379.99954224     378.27999878     380.05804443     380.38671875     378.62954712     381.85635376     384.02029419     385.41104126     386.78851318     388.08920288     389.42712402     390.22451782     390.54806519     389.54965210     388.63638306     389.49530029     388.77105713     387.91860962     386.66537476     385.46356201     385.14111328     386.38409424     387.94497681     389.25201416     390.36175537     391.35232544     392.34790039     392.97052002     393.43765259     394.09890747       0.00000000       0.00000000       0.00000000       0.00000000       0.00000000       0.00000000       0.00000000
           0.00000000       0.00000000       0.00000000     386.68472290     386.70483398     386.54998779     385.69790649     385.68194580     384.04010010     384.68399048     386.57687378     386.14752197     383.87207031     381.48611450     380.18685913     382.30538940     381.64450073     379.06066895     380.76425171     383.74063110     385.56799316     386.80169678     387.42938232     388.59701538     389.94537354     390.61404419     390.06155396     389.38034058     390.30230713     390.43911743     389.77124023     387.87744141     386.94702148     386.16113281     385.70922852     386.54025269     387.82998657     389.38073730     390.83062744     392.40405273     393.33377075     394.14505005     394.44201660       0.00000000       0.00000000       0.00000000       0.00000000       0.00000000       0.00000000       0.00000000
           0.00000000       0.00000000       0.00000000     387.56472778     387.84527588     387.66845703     387.12222290     387.04943848     385.54949951     384.54064941     385.73434448     386.25390625     385.70599365     383.66235352     382.29864502     383.80801392     382.17791748     379.73150635     380.83093262     383.91076660     386.22616577     387.90512085     388.25973511     388.41256714     389.35131836     390.09576416     389.99566650     389.93161011     390.61911011     390.91082764     390.14575195     388.61370850     388.77526855     387.94989014     386.58786011     386.28463745     386.75268555     388.13204956     389.92776489     391.40014648     392.50292969     393.35482788     393.34756470     392.92977905       0.00000000       0.00000000       0.00000000       0.00000000       0.00000000       0.00000000
           0.00000000       0.00000000       0.00000000     388.54611206     388.58654785     388.57168579     388.30981445     387.20285034     385.75042725     384.89395142     385.99160767     386.27029419     385.93051147     385.15194702     384.26904297     383.26046753     381.19158936     379.67694092     380.71325684     382.87222290     385.23141479     387.74630737     389.09222412     389.58233643     390.08062744     390.50064087     390.55941772     390.42855835     390.69216919     390.72534180     389.90408325     389.53302002     390.18081665     389.52383423     388.48532104     388.09252930     387.14682007     387.19134521     388.40856934     390.09860229     391.38394165     392.06106567     392.05136108     392.23916626       0.00000000       0.00000000       0.00000000       0.00000000       0.00000000       0.00000000
           0.00000000       0.00000000       0.00000000     388.18237305     388.47964478     388.86495972     388.69262695     387.37774658     385.94601440     385.64935303     386.58062744     386.40979004     386.54873657     386.57546997     384.46145630     382.08029175     380.41693115     379.79965210     381.28475952     383.65008545     385.35983276     387.36236572     389.16778564     390.45022583     391.22070312     391.33285522     391.39373779     391.46966553     391.21868896     390.95425415     390.63150024     390.66384888     391.12982178     390.62084961     390.24432373     390.32403564     389.23892212     388.16595459     387.77484131     388.95013428     390.06106567     390.79086304     391.41345215     392.31475830     392.69595337       0.00000000       0.00000000       0.00000000       0.00000000       0.00000000
           0.00000000       0.00000000       0.00000000     388.53472900     388.84832764     388.99130249     388.26123047     387.13967896     386.39862061     386.54162598     386.90072632     387.10964966     387.08279419     386.98321533     384.41629028     381.83190918     380.79385376     380.23788452     381.45202637     384.18432617     386.24551392     387.32604980     388.58551025     389.74600220     390.48797607     390.91806030     391.87139893     392.63848877     392.34646606     392.01412964     392.02835083     391.87173462     392.01275635     391.75811768     391.60299683     391.89999390     391.15194702     390.01876831     388.75677490     388.72247314     388.90533447     389.52703857     390.87347412     392.20553589     392.95779419       0.00000000       0.00000000       0.00000000       0.00000000       0.00000000
           0.00000000       0.00000000       0.00000000     388.84783936     388.94854736     389.19155884     388.70587158     387.68728638     387.37649536     387.97418213     387.86114502     387.76983643     387.92712402     387.70422363     385.37969971     382.83648682     381.91629028     381.12646484     381.39196777     383.57855225     385.44610596     387.06198120     388.19952393     388.72769165     389.52874756     390.49374390     391.48245239     392.72058105     392.94421387     393.18228149     393.21969604     393.09149170     392.92837524     392.76919556     392.71322632     392.93560791     392.56460571     390.85165405     389.31027222     389.77667236     389.91970825     389.59606934     390.03845215     390.99996948     392.04876709     392.57885742       0.00000000       0.00000000       0.00000000       0.00000000
           0.00000000       0.00000000       0.00000000     389.51446533     389.79748535     389.65817261     388.61392212     387.77777100     388.13745117     388.53677368     388.58776855     388.32019043     388.05453491     387.74829102     386.33383179     384.81982422     383.56796265     382.12023926     381.64630127     383.04345703     384.39993286     385.72082520     386.94769287     388.15142822     389.07739258     390.22094727     391.28680420     392.02435303     392.80963135     393.78063965     393.96264648     394.13766479     393.85302734     393.81021118     394.01498413     393.67703247     392.89630127     391.10128784     389.95803833     391.15103149     391.55786133     390.98471069     390.35189819     390.39892578     391.00024414     391.59637451       0.00000000       0.00000000       0.00000000       0.00000000
           0.00000000       0.00000000     390.12133789     390.13281250     390.26754761     389.78192139     388.81649780     388.36956787     388.43313599     388.78298950     389.15072632     388.97778320     388.41180420     387.86651611     387.31863403     386.58419800     384.90768433     382.74581909     382.03408813     383.79629517     386.19818115     387.43548584     388.20016479     389.28009033     390.02548218     390.77511597     391.67071533     392.76129150     393.32812500     393.65142822     394.01690674     394.51980591     394.45764160     394.22512817     394.62292480     394.70422363     393.37774658     391.32833862     390.86837769     392.28262329     392.71810913     392.28305054     391.73110962     391.32122803     391.02264404     391.25668335     391.46704102       0.00000000       0.00000000       0.00000000
           0.00000000       0.00000000       0.00000000       0.00000000       0.00000000     389.93490601     389.35333252     388.76458740     388.66043091     389.12094116     389.82110596     389.92437744     389.47573853     388.93286133     388.25143433     386.30255127     384.36999512     382.72796631     382.43173218     384.29788208     386.80352783     388.26852417     388.83151245     389.60519409     390.27722168     390.97378540     391.58755493     392.74191284     393.70288086     393.97424316     394.25726318     394.28836060     393.86840820     393.76162720     394.18676758     394.01049805     393.25671387     391.77877808     392.10992432     393.39373779     393.50051880     393.15670776     392.93658447     392.55700684     392.09271240     391.50039673     391.51647949       0.00000000       0.00000000       0.00000000
           0.00000000       0.00000000       0.00000000       0.00000000       0.00000000       0.00000000       0.00000000     389.36233521     389.26712036     389.58383179     390.25588989     390.96859741     390.63439941     389.13674927     387.77041626     386.24295044     384.68267822     382.97256470     382.80584717     384.43930054     386.40673828     387.90557861     388.69467163     389.58135986     390.67623901     391.68673706     392.32522583     392.69595337     393.25463867     393.86315918     394.37667847     394.25817871     393.77014160     393.44848633     393.48269653     393.00881958     392.55737305     392.32870483     393.21597290     394.14257812     394.10937500     393.86322021     393.61538696     393.45507812     393.17141724     392.28494263     392.05371094     392.27774048       0.00000000       0.00000000
           0.00000000       0.00000000       0.00000000       0.00000000       0.00000000       0.00000000       0.00000000     390.46688843     389.90249634     389.89828491     390.07907104     390.84167480     390.70770264     388.88146973     387.19000244     386.45980835     385.47442627     383.60919189     383.11822510     383.96325684     385.34664917     386.57211304     387.42086792     388.78381348     390.19671631     391.17114258     392.09704590     392.61169434     393.63385010     394.33108521     394.85714722     394.40774536     394.47583008     394.36248779     393.87509155     393.02807617     392.69299316     392.71127319     393.50164795     394.45800781     394.49215698     394.28002930     394.03973389     393.81018066     393.42877197     392.91229248     392.74490356     392.60299683     393.04605103       0.00000000
           0.00000000       0.00000000       0.00000000       0.00000000       0.00000000       0.00000000       0.00000000       0.00000000       0.00000000       0.00000000     390.22018433     390.04574585     389.78701782     388.86877441     387.70574951     386.04953003     385.37121582     384.95584106     383.95361328     384.45742798     386.77359009     387.96194458     388.39532471     388.30603027     389.22308350     390.41137695     391.36166382     392.20141602     393.25897217     394.08651733     394.56591797     394.65692139     394.79199219     394.68606567     394.18606567     393.80624390     393.42697144     392.99624634     393.38885498     394.57962036     394.75125122     394.76504517     394.76193237     394.15927124     393.46606445     393.21817017     393.16723633     393.00695801     393.13711548       0.00000000
           0.00000000       0.00000000       0.00000000       0.00000000       0.00000000       0.00000000       0.00000000       0.00000000       0.00000000       0.00000000       0.00000000       0.00000000     388.57339478     388.03256226     387.15884399     386.95486450     387.56951904     386.77633667     385.24359131     384.54129028     386.09707642     388.12713623     389.44863892     389.73077393     390.04681396     391.00518799     392.24877930     392.99359131     393.22036743     393.74386597     394.18197632     394.77001953     395.39349365     395.47406006     394.76559448     394.43618774     393.95318604     393.32681274     393.23330688     393.89404297     394.40725708     395.12063599     395.33673096     394.62454224     393.94161987     393.72689819     393.89303589     393.52685547     393.52944946       0.00000000