# File generated by Flopy version 3.8.2 on 11/13/2024 at 14:42:23.
BEGIN options
  COMPLEXITY  simple
END options

BEGIN nonlinear
  OUTER_DVCLOSE  1.00000000E-04
END nonlinear

BEGIN linear
  INNER_DVCLOSE  1.00000000E-04
  LINEAR_ACCELERATION  bicgstab
END linear

