# File generated by Flopy version 3.8.2 on 11/07/2024 at 18:43:43.
BEGIN options
END options

BEGIN dimensions
  MAXBOUND  497
END dimensions

BEGIN period  1
  1 17 16 1.00000000E+02
  1 17 17 1.00000000E+02
  1 17 18 1.00000000E+02
  1 18 17 1.00000000E+02
  1 17 19 1.00000000E+02
  1 18 18 1.00000000E+02
  1 17 20 1.00000000E+02
  1 17 21 1.00000000E+02
  1 18 21 1.00000000E+02
  1 18 22 1.00000000E+02
  1 19 22 1.00000000E+02
  1 19 23 1.00000000E+02
  1 20 23 1.00000000E+02
  1 20 24 1.00000000E+02
  1 20 25 1.00000000E+02
  1 20 26 1.00000000E+02
  1 20 27 1.00000000E+02
  1 20 28 1.00000000E+02
  1 21 28 1.00000000E+02
  1 21 29 1.00000000E+02
  1 22 29 1.00000000E+02
  1 22 30 1.00000000E+02
  1 22 31 1.00000000E+02
  1 23 30 1.00000000E+02
  1 22 32 1.00000000E+02
  1 21 31 1.00000000E+02
  1 23 31 1.00000000E+02
  1 21 32 1.00000000E+02
  1 23 32 1.00000000E+02
  1 23 33 1.00000000E+02
  1 23 34 1.00000000E+02
  1 22 34 1.00000000E+02
  1 22 35 1.00000000E+02
  1 22 36 1.00000000E+02
  1 22 37 1.00000000E+02
  1 21 36 1.00000000E+02
  1 22 38 1.00000000E+02
  1 21 37 1.00000000E+02
  1 22 39 1.00000000E+02
  1 23 38 1.00000000E+02
  1 22 40 1.00000000E+02
  1 23 39 1.00000000E+02
  1 22 41 1.00000000E+02
  1 22 42 1.00000000E+02
  1 23 41 1.00000000E+02
  1 22 43 1.00000000E+02
  1 23 42 1.00000000E+02
  1 21 43 1.00000000E+02
  1 21 44 1.00000000E+02
  1 20 44 1.00000000E+02
  1 19 44 1.00000000E+02
  1 19 45 1.00000000E+02
  1 19 46 1.00000000E+02
  1 20 46 1.00000000E+02
  1 20 47 1.00000000E+02
  1 20 48 1.00000000E+02
  1 20 49 1.00000000E+02
  1 20 50 1.00000000E+02
  1 19 50 1.00000000E+02
  1 19 51 1.00000000E+02
  1 19 52 1.00000000E+02
  1 18 52 1.00000000E+02
  1 17 52 1.00000000E+02
  1 17 53 1.00000000E+02
  1 16 53 1.00000000E+02
  1 15 53 1.00000000E+02
  1 15 52 1.00000000E+02
  1 14 52 1.00000000E+02
  1 13 52 1.00000000E+02
  1 12 52 1.00000000E+02
  1 12 53 1.00000000E+02
  1 11 52 1.00000000E+02
  1 11 53 1.00000000E+02
  1 10 52 1.00000000E+02
  1 10 53 1.00000000E+02
  1 9 53 1.00000000E+02
  1 9 54 1.00000000E+02
  1 8 54 1.00000000E+02
  1 7 54 1.00000000E+02
  1 7 55 1.00000000E+02
  1 7 56 1.00000000E+02
  1 6 56 1.00000000E+02
  1 6 57 1.00000000E+02
  1 5 57 1.00000000E+02
  1 4 57 1.00000000E+02
  1 4 58 1.00000000E+02
  1 4 59 1.00000000E+02
  1 4 60 1.00000000E+02
  1 3 60 1.00000000E+02
  1 2 60 1.00000000E+02
  1 2 61 1.00000000E+02
  1 1 61 1.00000000E+02
  1 1 62 1.00000000E+02
  1 1 63 1.00000000E+02
  1 1 64 1.00000000E+02
  1 2 64 1.00000000E+02
  1 2 65 1.00000000E+02
  1 2 66 1.00000000E+02
  1 2 67 1.00000000E+02
  1 3 67 1.00000000E+02
  1 4 67 1.00000000E+02
  1 4 68 1.00000000E+02
  1 5 68 1.00000000E+02
  1 5 69 1.00000000E+02
  1 5 70 1.00000000E+02
  1 5 71 1.00000000E+02
  1 4 70 1.00000000E+02
  1 4 71 1.00000000E+02
  1 6 71 1.00000000E+02
  1 7 71 1.00000000E+02
  1 7 72 1.00000000E+02
  1 8 72 1.00000000E+02
  1 8 73 1.00000000E+02
  1 8 74 1.00000000E+02
  1 7 74 1.00000000E+02
  1 7 75 1.00000000E+02
  1 6 75 1.00000000E+02
  1 6 76 1.00000000E+02
  1 6 77 1.00000000E+02
  1 6 78 1.00000000E+02
  1 6 79 1.00000000E+02
  1 5 78 1.00000000E+02
  1 7 78 1.00000000E+02
  1 6 80 1.00000000E+02
  1 5 79 1.00000000E+02
  1 4 78 1.00000000E+02
  1 5 80 1.00000000E+02
  1 7 80 1.00000000E+02
  1 3 78 1.00000000E+02
  1 4 80 1.00000000E+02
  1 8 80 1.00000000E+02
  1 3 79 1.00000000E+02
  1 2 78 1.00000000E+02
  1 3 80 1.00000000E+02
  1 9 80 1.00000000E+02
  1 2 79 1.00000000E+02
  1 9 81 1.00000000E+02
  1 10 81 1.00000000E+02
  1 11 81 1.00000000E+02
  1 12 81 1.00000000E+02
  1 13 81 1.00000000E+02
  1 14 81 1.00000000E+02
  1 15 81 1.00000000E+02
  1 16 81 1.00000000E+02
  1 16 82 1.00000000E+02
  1 17 82 1.00000000E+02
  1 18 82 1.00000000E+02
  1 19 82 1.00000000E+02
  1 19 83 1.00000000E+02
  1 20 83 1.00000000E+02
  1 21 83 1.00000000E+02
  1 22 83 1.00000000E+02
  1 23 83 1.00000000E+02
  1 23 84 1.00000000E+02
  1 24 84 1.00000000E+02
  1 25 84 1.00000000E+02
  1 26 84 1.00000000E+02
  1 27 84 1.00000000E+02
  1 27 85 1.00000000E+02
  1 28 85 1.00000000E+02
  1 29 85 1.00000000E+02
  1 29 86 1.00000000E+02
  1 30 86 1.00000000E+02
  1 31 86 1.00000000E+02
  1 32 86 1.00000000E+02
  1 33 86 1.00000000E+02
  1 34 86 1.00000000E+02
  1 35 86 1.00000000E+02
  1 36 86 1.00000000E+02
  1 36 87 1.00000000E+02
  1 37 87 1.00000000E+02
  1 38 87 1.00000000E+02
  1 39 87 1.00000000E+02
  1 40 87 1.00000000E+02
  1 41 87 1.00000000E+02
  1 41 88 1.00000000E+02
  1 42 88 1.00000000E+02
  1 43 88 1.00000000E+02
  1 44 88 1.00000000E+02
  1 44 89 1.00000000E+02
  1 45 89 1.00000000E+02
  1 46 89 1.00000000E+02
  1 47 89 1.00000000E+02
  1 47 90 1.00000000E+02
  1 48 90 1.00000000E+02
  1 48 91 1.00000000E+02
  1 49 91 1.00000000E+02
  1 50 91 1.00000000E+02
  1 50 92 1.00000000E+02
  1 51 92 1.00000000E+02
  1 52 92 1.00000000E+02
  1 52 93 1.00000000E+02
  1 53 93 1.00000000E+02
  1 53 94 1.00000000E+02
  1 54 94 1.00000000E+02
  1 55 94 1.00000000E+02
  1 55 95 1.00000000E+02
  1 56 95 1.00000000E+02
  1 57 95 1.00000000E+02
  1 57 96 1.00000000E+02
  1 58 96 1.00000000E+02
  1 59 96 1.00000000E+02
  1 59 97 1.00000000E+02
  1 60 97 1.00000000E+02
  1 60 98 1.00000000E+02
  1 61 98 1.00000000E+02
  1 62 98 1.00000000E+02
  1 62 99 1.00000000E+02
  1 63 99 1.00000000E+02
  1 64 99 1.00000000E+02
  1 65 99 1.00000000E+02
  1 66 99 1.00000000E+02
  1 66 100 1.00000000E+02
  1 67 100 1.00000000E+02
  1 68 100 1.00000000E+02
  1 69 100 1.00000000E+02
  1 70 100 1.00000000E+02
  1 71 100 1.00000000E+02
  1 72 100 1.00000000E+02
  1 73 100 1.00000000E+02
  1 74 100 1.00000000E+02
  1 75 100 1.00000000E+02
  1 76 100 1.00000000E+02
  1 77 100 1.00000000E+02
  1 78 100 1.00000000E+02
  1 79 100 1.00000000E+02
  1 80 100 1.00000000E+02
  1 81 100 1.00000000E+02
  1 81 99 1.00000000E+02
  1 82 99 1.00000000E+02
  1 83 99 1.00000000E+02
  1 83 98 1.00000000E+02
  1 83 97 1.00000000E+02
  1 83 96 1.00000000E+02
  1 83 95 1.00000000E+02
  1 84 95 1.00000000E+02
  1 84 94 1.00000000E+02
  1 84 93 1.00000000E+02
  1 84 92 1.00000000E+02
  1 84 91 1.00000000E+02
  1 84 90 1.00000000E+02
  1 84 89 1.00000000E+02
  1 83 89 1.00000000E+02
  1 83 88 1.00000000E+02
  1 83 87 1.00000000E+02
  1 83 86 1.00000000E+02
  1 82 86 1.00000000E+02
  1 82 85 1.00000000E+02
  1 82 84 1.00000000E+02
  1 81 84 1.00000000E+02
  1 81 83 1.00000000E+02
  1 81 82 1.00000000E+02
  1 81 81 1.00000000E+02
  1 80 81 1.00000000E+02
  1 80 80 1.00000000E+02
  1 80 79 1.00000000E+02
  1 81 79 1.00000000E+02
  1 81 78 1.00000000E+02
  1 81 77 1.00000000E+02
  1 81 76 1.00000000E+02
  1 81 75 1.00000000E+02
  1 81 74 1.00000000E+02
  1 81 73 1.00000000E+02
  1 82 73 1.00000000E+02
  1 82 72 1.00000000E+02
  1 83 72 1.00000000E+02
  1 83 71 1.00000000E+02
  1 84 71 1.00000000E+02
  1 84 70 1.00000000E+02
  1 85 70 1.00000000E+02
  1 85 69 1.00000000E+02
  1 86 69 1.00000000E+02
  1 87 69 1.00000000E+02
  1 88 69 1.00000000E+02
  1 88 68 1.00000000E+02
  1 89 68 1.00000000E+02
  1 90 68 1.00000000E+02
  1 91 68 1.00000000E+02
  1 92 68 1.00000000E+02
  1 93 68 1.00000000E+02
  1 93 67 1.00000000E+02
  1 94 67 1.00000000E+02
  1 95 67 1.00000000E+02
  1 96 67 1.00000000E+02
  1 97 67 1.00000000E+02
  1 97 66 1.00000000E+02
  1 98 66 1.00000000E+02
  1 98 65 1.00000000E+02
  1 99 65 1.00000000E+02
  1 99 64 1.00000000E+02
  1 100 64 1.00000000E+02
  1 100 63 1.00000000E+02
  1 100 62 1.00000000E+02
  1 100 61 1.00000000E+02
  1 100 60 1.00000000E+02
  1 100 59 1.00000000E+02
  1 100 58 1.00000000E+02
  1 100 57 1.00000000E+02
  1 100 56 1.00000000E+02
  1 100 55 1.00000000E+02
  1 100 54 1.00000000E+02
  1 100 53 1.00000000E+02
  1 100 52 1.00000000E+02
  1 100 51 1.00000000E+02
  1 100 50 1.00000000E+02
  1 100 49 1.00000000E+02
  1 100 48 1.00000000E+02
  1 100 47 1.00000000E+02
  1 100 46 1.00000000E+02
  1 100 45 1.00000000E+02
  1 100 44 1.00000000E+02
  1 99 44 1.00000000E+02
  1 98 44 1.00000000E+02
  1 98 45 1.00000000E+02
  1 97 44 1.00000000E+02
  1 97 45 1.00000000E+02
  1 96 44 1.00000000E+02
  1 95 44 1.00000000E+02
  1 95 43 1.00000000E+02
  1 95 42 1.00000000E+02
  1 94 42 1.00000000E+02
  1 93 42 1.00000000E+02
  1 92 42 1.00000000E+02
  1 91 42 1.00000000E+02
  1 91 41 1.00000000E+02
  1 91 40 1.00000000E+02
  1 92 40 1.00000000E+02
  1 93 40 1.00000000E+02
  1 93 39 1.00000000E+02
  1 94 39 1.00000000E+02
  1 94 38 1.00000000E+02
  1 94 37 1.00000000E+02
  1 95 37 1.00000000E+02
  1 95 36 1.00000000E+02
  1 96 37 1.00000000E+02
  1 95 35 1.00000000E+02
  1 96 36 1.00000000E+02
  1 94 35 1.00000000E+02
  1 94 34 1.00000000E+02
  1 94 33 1.00000000E+02
  1 93 33 1.00000000E+02
  1 93 32 1.00000000E+02
  1 92 32 1.00000000E+02
  1 92 31 1.00000000E+02
  1 91 32 1.00000000E+02
  1 92 30 1.00000000E+02
  1 91 31 1.00000000E+02
  1 90 32 1.00000000E+02
  1 91 30 1.00000000E+02
  1 90 31 1.00000000E+02
  1 90 30 1.00000000E+02
  1 89 30 1.00000000E+02
  1 88 30 1.00000000E+02
  1 87 30 1.00000000E+02
  1 86 30 1.00000000E+02
  1 85 30 1.00000000E+02
  1 84 30 1.00000000E+02
  1 84 31 1.00000000E+02
  1 83 30 1.00000000E+02
  1 83 31 1.00000000E+02
  1 82 30 1.00000000E+02
  1 81 30 1.00000000E+02
  1 80 30 1.00000000E+02
  1 80 29 1.00000000E+02
  1 79 29 1.00000000E+02
  1 79 28 1.00000000E+02
  1 79 27 1.00000000E+02
  1 79 26 1.00000000E+02
  1 78 26 1.00000000E+02
  1 77 26 1.00000000E+02
  1 76 26 1.00000000E+02
  1 75 26 1.00000000E+02
  1 75 25 1.00000000E+02
  1 74 25 1.00000000E+02
  1 73 25 1.00000000E+02
  1 72 25 1.00000000E+02
  1 71 25 1.00000000E+02
  1 71 24 1.00000000E+02
  1 70 24 1.00000000E+02
  1 69 24 1.00000000E+02
  1 69 23 1.00000000E+02
  1 69 22 1.00000000E+02
  1 68 23 1.00000000E+02
  1 69 21 1.00000000E+02
  1 68 22 1.00000000E+02
  1 68 21 1.00000000E+02
  1 67 21 1.00000000E+02
  1 67 20 1.00000000E+02
  1 66 20 1.00000000E+02
  1 66 19 1.00000000E+02
  1 66 18 1.00000000E+02
  1 67 18 1.00000000E+02
  1 67 17 1.00000000E+02
  1 67 16 1.00000000E+02
  1 67 15 1.00000000E+02
  1 66 16 1.00000000E+02
  1 67 14 1.00000000E+02
  1 67 13 1.00000000E+02
  1 66 14 1.00000000E+02
  1 66 13 1.00000000E+02
  1 65 14 1.00000000E+02
  1 64 14 1.00000000E+02
  1 64 13 1.00000000E+02
  1 63 14 1.00000000E+02
  1 63 13 1.00000000E+02
  1 62 13 1.00000000E+02
  1 62 12 1.00000000E+02
  1 62 11 1.00000000E+02
  1 61 11 1.00000000E+02
  1 61 10 1.00000000E+02
  1 61 9 1.00000000E+02
  1 61 8 1.00000000E+02
  1 60 9 1.00000000E+02
  1 61 7 1.00000000E+02
  1 60 8 1.00000000E+02
  1 60 7 1.00000000E+02
  1 60 6 1.00000000E+02
  1 60 5 1.00000000E+02
  1 60 4 1.00000000E+02
  1 59 4 1.00000000E+02
  1 58 4 1.00000000E+02
  1 57 4 1.00000000E+02
  1 56 4 1.00000000E+02
  1 55 4 1.00000000E+02
  1 55 5 1.00000000E+02
  1 54 5 1.00000000E+02
  1 53 5 1.00000000E+02
  1 53 4 1.00000000E+02
  1 52 4 1.00000000E+02
  1 51 4 1.00000000E+02
  1 51 5 1.00000000E+02
  1 50 5 1.00000000E+02
  1 50 6 1.00000000E+02
  1 49 6 1.00000000E+02
  1 48 6 1.00000000E+02
  1 47 6 1.00000000E+02
  1 46 6 1.00000000E+02
  1 45 6 1.00000000E+02
  1 44 6 1.00000000E+02
  1 44 5 1.00000000E+02
  1 43 5 1.00000000E+02
  1 43 4 1.00000000E+02
  1 42 4 1.00000000E+02
  1 41 4 1.00000000E+02
  1 41 3 1.00000000E+02
  1 40 3 1.00000000E+02
  1 39 3 1.00000000E+02
  1 39 2 1.00000000E+02
  1 38 2 1.00000000E+02
  1 38 1 1.00000000E+02
  1 37 1 1.00000000E+02
  1 36 1 1.00000000E+02
  1 35 1 1.00000000E+02
  1 34 1 1.00000000E+02
  1 33 1 1.00000000E+02
  1 33 2 1.00000000E+02
  1 32 2 1.00000000E+02
  1 32 3 1.00000000E+02
  1 31 2 1.00000000E+02
  1 31 3 1.00000000E+02
  1 30 2 1.00000000E+02
  1 30 1 1.00000000E+02
  1 29 1 1.00000000E+02
  1 28 1 1.00000000E+02
  1 27 1 1.00000000E+02
  1 27 2 1.00000000E+02
  1 26 2 1.00000000E+02
  1 26 3 1.00000000E+02
  1 25 2 1.00000000E+02
  1 26 4 1.00000000E+02
  1 25 3 1.00000000E+02
  1 26 5 1.00000000E+02
  1 26 6 1.00000000E+02
  1 26 7 1.00000000E+02
  1 25 6 1.00000000E+02
  1 26 8 1.00000000E+02
  1 25 7 1.00000000E+02
  1 27 8 1.00000000E+02
  1 27 9 1.00000000E+02
  1 27 10 1.00000000E+02
  1 27 11 1.00000000E+02
  1 27 12 1.00000000E+02
  1 26 12 1.00000000E+02
  1 25 12 1.00000000E+02
  1 24 12 1.00000000E+02
  1 24 13 1.00000000E+02
  1 23 13 1.00000000E+02
  1 22 13 1.00000000E+02
  1 21 13 1.00000000E+02
  1 21 14 1.00000000E+02
  1 20 14 1.00000000E+02
  1 19 14 1.00000000E+02
  1 18 14 1.00000000E+02
  1 18 13 1.00000000E+02
  1 17 14 1.00000000E+02
  1 17 13 1.00000000E+02
  1 17 15 1.00000000E+02
END period  1

