# File generated by Flopy version 3.8.2 on 11/13/2024 at 14:21:57.
BEGIN options
END options

