# File generated by Flopy version 3.8.2 on 11/13/2024 at 14:41:33.
BEGIN options
  READASARRAYS
END options

BEGIN period  1
  recharge
    CONSTANT  1.00000000E-04
END period  1

