# File generated by Flopy version 3.8.2 on 12/12/2024 at 09:58:32.
BEGIN options
  SAVE_FLOWS
  NEWTON  UNDER_RELAXATION
END options

BEGIN packages
  DIS6  EPM_wsgrid.dis  dis
  DRN6  EPM_wsgrid.drn  drn_0
  IC6  EPM_wsgrid.ic  ic
  NPF6  EPM_wsgrid.npf  npf
  EVT6  EPM_wsgrid.evt  evt
  RCH6  EPM_wsgrid.rcha  rcha_0
  OC6  EPM_wsgrid.oc  oc
END packages

