# File generated by Flopy version 3.8.2 on 11/20/2024 at 12:14:15.
BEGIN options
  TIME_UNITS  days
END options

BEGIN dimensions
  NPER  1
END dimensions

BEGIN perioddata
       1.00000000  1       1.00000000
END perioddata

