# File generated by Flopy version 3.8.2 on 11/20/2024 at 12:14:15.
BEGIN options
  SAVE_SPECIFIC_DISCHARGE
END options

BEGIN griddata
  icelltype
    CONSTANT  0
  k  LAYERED
    CONSTANT       0.18288000
    CONSTANT       0.60960000
    CONSTANT  3.04800000E-05
  k33  LAYERED
    CONSTANT       0.18288000
    CONSTANT       0.60960000
    CONSTANT  3.04800000E-05
END griddata

