# File generated by Flopy version 3.8.2 on 11/13/2024 at 13:13:31.
BEGIN options
  SAVE_SPECIFIC_DISCHARGE
END options

BEGIN griddata
  icelltype
    CONSTANT  1
  k  LAYERED
    CONSTANT       0.18288000
    CONSTANT       6.09600000
    CONSTANT  3.04800000E-05
  k33  LAYERED
    CONSTANT       0.18288000
    CONSTANT       6.09600000
    CONSTANT  3.04800000E-05
END griddata

