# File generated by Flopy version 3.8.2 on 11/26/2024 at 15:46:17.
BEGIN options
END options

BEGIN griddata
  iconvert
    CONSTANT  0
  ss
    CONSTANT  1.00000000E-05
  sy
    CONSTANT       1.90000000
END griddata

