# File generated by Flopy version 3.8.2 on 12/12/2024 at 09:58:32.
BEGIN options
  SAVE_FLOWS
END options

BEGIN dimensions
  MAXBOUND  441
END dimensions

BEGIN period  1
  3 57 62 3.73985016E+02 9.58151000E+03
  1 57 63 3.75080414E+02 1.00000000E+02
  1 31 35 3.56397888E+02 1.00000000E+02
  1 64 88 3.87900604E+02 1.00000000E+02
  1 45 22 3.37841766E+02 1.00000000E+02
  1 21 57 3.74858276E+02 1.00000000E+02
  1 31 51 3.66231293E+02 1.00000000E+02
  1 78 35 3.61721588E+02 1.00000000E+02
  1 55 59 3.73942841E+02 1.00000000E+02
  1 59 82 3.85040009E+02 1.00000000E+02
  1 70 73 3.84830231E+02 1.00000000E+02
  1 62 85 3.86132538E+02 1.00000000E+02
  1 74 28 3.55092834E+02 1.00000000E+02
  1 58 78 3.82054108E+02 1.00000000E+02
  1 59 66 3.75517761E+02 1.00000000E+02
  1 46 66 3.72232819E+02 1.00000000E+02
  1 67 25 3.48332397E+02 1.00000000E+02
  1 53 58 3.70058716E+02 1.00000000E+02
  1 83 49 3.80140533E+02 1.00000000E+02
  1 65 89 3.89364929E+02 1.00000000E+02
  1 17 55 3.78065460E+02 1.00000000E+02
  1 79 38 3.65435760E+02 1.00000000E+02
  1 76 40 3.75429230E+02 1.00000000E+02
  1 24 55 3.76995178E+02 1.00000000E+02
  1 60 15 3.44797821E+02 1.00000000E+02
  1 56 12 3.38042175E+02 1.00000000E+02
  1 34 78 3.81771179E+02 1.00000000E+02
  1 54 59 3.69821869E+02 1.00000000E+02
  1 19 60 3.79562653E+02 1.00000000E+02
  1 13 66 3.88405823E+02 1.00000000E+02
  1 31 78 3.82815674E+02 1.00000000E+02
  1 27 55 3.73036682E+02 1.00000000E+02
  1 29 52 3.68963623E+02 1.00000000E+02
  1 19 62 3.84823059E+02 1.00000000E+02
  1 52 46 3.67225616E+02 1.00000000E+02
  1 46 25 3.52707764E+02 1.00000000E+02
  1 38 42 3.56578827E+02 1.00000000E+02
  1 58 77 3.81798615E+02 1.00000000E+02
  1 60 66 3.77892212E+02 1.00000000E+02
  1 42 71 3.75381042E+02 1.00000000E+02
  1 42 75 3.79327423E+02 1.00000000E+02
  1 63 87 3.87074097E+02 1.00000000E+02
  1 54 8 3.38049255E+02 1.00000000E+02
  1 12 69 3.90469910E+02 1.00000000E+02
  1 69 25 3.48414215E+02 1.00000000E+02
  1 63 17 3.43244232E+02 1.00000000E+02
  1 54 9 3.35979431E+02 1.00000000E+02
  1 50 4 3.35563934E+02 1.00000000E+02
  1 42 74 3.77909790E+02 1.00000000E+02
  1 71 73 3.85229797E+02 1.00000000E+02
  1 66 22 3.45674347E+02 1.00000000E+02
  1 60 68 3.75494110E+02 1.00000000E+02
  1 25 39 3.68515717E+02 1.00000000E+02
  1 28 54 3.72651245E+02 1.00000000E+02
  1 87 49 3.79539276E+02 1.00000000E+02
  1 58 79 3.82647095E+02 1.00000000E+02
  1 42 77 3.81152924E+02 1.00000000E+02
  1 13 68 3.90430969E+02 1.00000000E+02
  1 49 16 3.39835602E+02 1.00000000E+02
  1 76 38 3.71857788E+02 1.00000000E+02
  1 53 7 3.35774994E+02 1.00000000E+02
  1 58 50 3.77745087E+02 1.00000000E+02
  1 51 46 3.58912872E+02 1.00000000E+02
  1 52 58 3.67349945E+02 1.00000000E+02
  1 33 51 3.62892517E+02 1.00000000E+02
  1 28 38 3.63114716E+02 1.00000000E+02
  1 47 4 3.30201721E+02 1.00000000E+02
  1 60 70 3.76848389E+02 1.00000000E+02
  1 38 30 3.60996094E+02 1.00000000E+02
  1 59 79 3.83299927E+02 1.00000000E+02
  1 52 56 3.67706177E+02 1.00000000E+02
  1 35 50 3.60621765E+02 1.00000000E+02
  1 63 86 3.87103699E+02 1.00000000E+02
  1 38 43 3.54650299E+02 1.00000000E+02
  1 53 48 3.70816956E+02 1.00000000E+02
  1 40 76 3.78851807E+02 1.00000000E+02
  1 84 50 3.80367554E+02 1.00000000E+02
  1 42 34 3.52817108E+02 1.00000000E+02
  1 67 24 3.47716217E+02 1.00000000E+02
  1 67 72 3.82399872E+02 1.00000000E+02
  1 54 48 3.73047821E+02 1.00000000E+02
  1 38 41 3.56651947E+02 1.00000000E+02
  1 26 38 3.68887238E+02 1.00000000E+02
  1 30 78 3.83498932E+02 1.00000000E+02
  1 51 63 3.72110321E+02 1.00000000E+02
  1 86 59 3.85542450E+02 1.00000000E+02
  1 70 72 3.84105682E+02 1.00000000E+02
  1 57 12 3.39855865E+02 1.00000000E+02
  1 82 54 3.84297882E+02 1.00000000E+02
  1 23 55 3.76401581E+02 1.00000000E+02
  1 59 81 3.83632263E+02 1.00000000E+02
  1 60 18 3.49568695E+02 1.00000000E+02
  1 56 60 3.71160706E+02 1.00000000E+02
  1 61 84 3.85178314E+02 1.00000000E+02
  1 16 55 3.79113373E+02 1.00000000E+02
  1 85 48 3.77035187E+02 1.00000000E+02
  1 39 36 3.59641022E+02 1.00000000E+02
  1 46 24 3.39654694E+02 1.00000000E+02
  1 56 49 3.74059082E+02 1.00000000E+02
  1 49 4 3.32334900E+02 1.00000000E+02
  1 73 43 3.80284241E+02 1.00000000E+02
  1 21 38 3.75182037E+02 1.00000000E+02
  1 85 56 3.84378937E+02 1.00000000E+02
  1 89 51 3.81634918E+02 1.00000000E+02
  1 22 56 3.74529388E+02 1.00000000E+02
  1 51 51 3.63425903E+02 1.00000000E+02
  1 83 45 3.78118164E+02 1.00000000E+02
  1 24 56 3.73680115E+02 1.00000000E+02
  1 30 35 3.57108948E+02 1.00000000E+02
  1 60 20 3.53431244E+02 1.00000000E+02
  1 91 53 3.82457642E+02 1.00000000E+02
  1 52 6 3.33944580E+02 1.00000000E+02
  1 27 54 3.69745514E+02 1.00000000E+02
  1 44 19 3.37463715E+02 1.00000000E+02
  1 76 31 3.59887909E+02 1.00000000E+02
  1 36 50 3.58897308E+02 1.00000000E+02
  1 51 62 3.70005554E+02 1.00000000E+02
  1 52 57 3.66698120E+02 1.00000000E+02
  1 16 56 3.80003052E+02 1.00000000E+02
  1 20 57 3.78143921E+02 1.00000000E+02
  1 63 71 3.81132874E+02 1.00000000E+02
  1 42 73 3.76866180E+02 1.00000000E+02
  1 63 72 3.80906830E+02 1.00000000E+02
  1 55 12 3.39663544E+02 1.00000000E+02
  1 52 48 3.64484528E+02 1.00000000E+02
  1 39 76 3.78881165E+02 1.00000000E+02
  1 19 61 3.80333588E+02 1.00000000E+02
  1 54 60 3.75110901E+02 1.00000000E+02
  1 54 10 3.36197571E+02 1.00000000E+02
  1 51 50 3.62068756E+02 1.00000000E+02
  1 13 73 3.91413330E+02 1.00000000E+02
  1 84 55 3.82863708E+02 1.00000000E+02
  1 12 66 3.87839172E+02 1.00000000E+02
  1 46 9 3.38786957E+02 1.00000000E+02
  1 44 67 3.73468628E+02 1.00000000E+02
  1 51 60 3.69521576E+02 1.00000000E+02
  1 60 19 3.50853516E+02 1.00000000E+02
  1 45 38 3.53641022E+02 1.00000000E+02
  1 84 45 3.75153168E+02 1.00000000E+02
  1 12 67 3.88703156E+02 1.00000000E+02
  1 83 42 3.72508942E+02 1.00000000E+02
  1 32 51 3.65627716E+02 1.00000000E+02
  1 83 43 3.74889099E+02 1.00000000E+02
  1 48 11 3.32597900E+02 1.00000000E+02
  1 82 55 3.83298004E+02 1.00000000E+02
  1 58 76 3.81565704E+02 1.00000000E+02
  1 66 91 3.89967499E+02 1.00000000E+02
  1 82 40 3.69401611E+02 1.00000000E+02
  1 76 32 3.58571747E+02 1.00000000E+02
  1 82 41 3.69920563E+02 1.00000000E+02
  1 13 74 3.92549744E+02 1.00000000E+02
  1 50 45 3.60711426E+02 1.00000000E+02
  1 29 36 3.60675873E+02 1.00000000E+02
  1 51 61 3.69954651E+02 1.00000000E+02
  1 37 78 3.79959778E+02 1.00000000E+02
  1 85 58 3.84789948E+02 1.00000000E+02
  1 39 35 3.53762024E+02 1.00000000E+02
  1 65 19 3.43825623E+02 1.00000000E+02
  1 15 56 3.80295044E+02 1.00000000E+02
  1 83 51 3.80264587E+02 1.00000000E+02
  1 80 39 3.66658112E+02 1.00000000E+02
  1 61 18 3.49192322E+02 1.00000000E+02
  1 85 46 3.74174805E+02 1.00000000E+02
  1 83 46 3.78951050E+02 1.00000000E+02
  1 22 57 3.76255402E+02 1.00000000E+02
  1 37 49 3.57833466E+02 1.00000000E+02
  1 41 34 3.61096558E+02 1.00000000E+02
  1 13 71 3.91245575E+02 1.00000000E+02
  1 47 41 3.52855469E+02 1.00000000E+02
  1 49 14 3.34035645E+02 1.00000000E+02
  1 46 26 3.62433929E+02 1.00000000E+02
  1 30 52 3.68302979E+02 1.00000000E+02
  1 46 17 3.36821869E+02 1.00000000E+02
  1 48 3 3.31120972E+02 1.00000000E+02
  1 36 78 3.81087921E+02 1.00000000E+02
  1 22 39 3.74245178E+02 1.00000000E+02
  1 35 51 3.60362366E+02 1.00000000E+02
  1 17 38 3.81105896E+02 1.00000000E+02
  1 44 20 3.36349396E+02 1.00000000E+02
  1 66 72 3.81878296E+02 1.00000000E+02
  1 66 20 3.45005310E+02 1.00000000E+02
  1 48 10 3.32476990E+02 1.00000000E+02
  1 38 78 3.79381287E+02 1.00000000E+02
  1 68 72 3.83028442E+02 1.00000000E+02
  1 49 15 3.34565765E+02 1.00000000E+02
  1 74 75 3.88711609E+02 1.00000000E+02
  1 68 25 3.48223938E+02 1.00000000E+02
  1 83 44 3.76792633E+02 1.00000000E+02
  1 54 11 3.39222717E+02 1.00000000E+02
  1 84 54 3.83463043E+02 1.00000000E+02
  1 58 64 3.75904236E+02 1.00000000E+02
  1 47 8 3.31625977E+02 1.00000000E+02
  1 41 81 3.82877502E+02 1.00000000E+02
  1 47 25 3.44140747E+02 1.00000000E+02
  1 26 55 3.70882721E+02 1.00000000E+02
  1 67 22 3.49472534E+02 1.00000000E+02
  1 75 31 3.56977295E+02 1.00000000E+02
  1 39 30 3.62126495E+02 1.00000000E+02
  1 34 51 3.61446533E+02 1.00000000E+02
  1 43 29 3.54092224E+02 1.00000000E+02
  1 46 28 3.51912659E+02 1.00000000E+02
  1 41 80 3.82339203E+02 1.00000000E+02
  1 44 21 3.36567352E+02 1.00000000E+02
  1 45 67 3.73091980E+02 1.00000000E+02
  1 20 56 3.77969757E+02 1.00000000E+02
  1 34 50 3.64140961E+02 1.00000000E+02
  1 48 12 3.34492737E+02 1.00000000E+02
  1 42 72 3.76135742E+02 1.00000000E+02
  1 77 39 3.70048553E+02 1.00000000E+02
  1 49 13 3.33644531E+02 1.00000000E+02
  1 14 64 3.84804321E+02 1.00000000E+02
  1 19 59 3.81812927E+02 1.00000000E+02
  1 83 47 3.79840912E+02 1.00000000E+02
  1 17 64 3.82620667E+02 1.00000000E+02
  1 57 64 3.73724182E+02 1.00000000E+02
  1 46 16 3.37779022E+02 1.00000000E+02
  1 75 30 3.59153015E+02 1.00000000E+02
  1 52 60 3.74188080E+02 1.00000000E+02
  1 59 80 3.83130157E+02 1.00000000E+02
  1 73 27 3.52222107E+02 1.00000000E+02
  1 78 38 3.64414398E+02 1.00000000E+02
  1 47 67 3.75990631E+02 1.00000000E+02
  1 80 38 3.68709229E+02 1.00000000E+02
  1 51 53 3.64021332E+02 1.00000000E+02
  1 90 52 3.82170197E+02 1.00000000E+02
  1 51 47 3.59956360E+02 1.00000000E+02
  1 17 54 3.80049316E+02 1.00000000E+02
  1 55 49 3.73355011E+02 1.00000000E+02
  1 51 45 3.64907715E+02 1.00000000E+02
  1 51 58 3.68024200E+02 1.00000000E+02
  1 47 9 3.31948059E+02 1.00000000E+02
  1 12 76 3.92240753E+02 1.00000000E+02
  1 61 15 3.42780426E+02 1.00000000E+02
  1 72 25 3.54092224E+02 1.00000000E+02
  1 26 39 3.67252045E+02 1.00000000E+02
  1 84 49 3.78057404E+02 1.00000000E+02
  1 13 69 3.90705414E+02 1.00000000E+02
  1 56 61 3.70734436E+02 1.00000000E+02
  1 66 23 3.46631348E+02 1.00000000E+02
  1 44 18 3.42435181E+02 1.00000000E+02
  1 62 71 3.79680328E+02 1.00000000E+02
  1 20 59 3.77530701E+02 1.00000000E+02
  1 46 27 3.56928253E+02 1.00000000E+02
  1 56 62 3.71683136E+02 1.00000000E+02
  1 38 49 3.57669922E+02 1.00000000E+02
  1 50 51 3.69616333E+02 1.00000000E+02
  1 60 67 3.75690765E+02 1.00000000E+02
  1 42 70 3.75455566E+02 1.00000000E+02
  1 84 53 3.83263000E+02 1.00000000E+02
  1 85 59 3.85959900E+02 1.00000000E+02
  1 84 56 3.83450989E+02 1.00000000E+02
  1 74 27 3.56993073E+02 1.00000000E+02
  1 91 54 3.83962433E+02 1.00000000E+02
  1 59 71 3.78414612E+02 1.00000000E+02
  1 38 36 3.54678192E+02 1.00000000E+02
  1 84 47 3.77077972E+02 1.00000000E+02
  1 41 78 3.81834076E+02 1.00000000E+02
  1 72 73 3.86727783E+02 1.00000000E+02
  1 78 37 3.63188232E+02 1.00000000E+02
  1 74 42 3.76869690E+02 1.00000000E+02
  1 59 70 3.77878723E+02 1.00000000E+02
  1 37 30 3.57968933E+02 1.00000000E+02
  1 36 31 3.61425690E+02 1.00000000E+02
  1 58 75 3.82267242E+02 1.00000000E+02
  1 66 21 3.45307526E+02 1.00000000E+02
  1 77 33 3.60614960E+02 1.00000000E+02
  1 41 83 3.83460327E+02 1.00000000E+02
  1 83 41 3.72463867E+02 1.00000000E+02
  1 52 7 3.34772369E+02 1.00000000E+02
  1 41 71 3.76022064E+02 1.00000000E+02
  1 18 55 3.77585266E+02 1.00000000E+02
  1 29 35 3.60780121E+02 1.00000000E+02
  1 72 74 3.86816071E+02 1.00000000E+02
  1 66 19 3.48791199E+02 1.00000000E+02
  1 51 48 3.60674072E+02 1.00000000E+02
  1 74 29 3.55733978E+02 1.00000000E+02
  1 47 65 3.70957825E+02 1.00000000E+02
  1 45 39 3.52880493E+02 1.00000000E+02
  1 56 63 3.73177887E+02 1.00000000E+02
  1 38 50 3.59118744E+02 1.00000000E+02
  1 43 69 3.74826202E+02 1.00000000E+02
  1 84 46 3.75712341E+02 1.00000000E+02
  1 72 26 3.53114624E+02 1.00000000E+02
  1 73 28 3.57339783E+02 1.00000000E+02
  1 58 49 3.77820709E+02 1.00000000E+02
  1 28 37 3.63781311E+02 1.00000000E+02
  1 70 25 3.49010101E+02 1.00000000E+02
  1 54 49 3.72351807E+02 1.00000000E+02
  1 29 53 3.69427185E+02 1.00000000E+02
  1 91 52 3.82531250E+02 1.00000000E+02
  1 36 77 3.82621429E+02 1.00000000E+02
  1 23 39 3.72036377E+02 1.00000000E+02
  1 17 63 3.83996490E+02 1.00000000E+02
  1 39 29 3.52859039E+02 1.00000000E+02
  1 85 57 3.84234802E+02 1.00000000E+02
  1 40 35 3.52653748E+02 1.00000000E+02
  1 73 75 3.88544983E+02 1.00000000E+02
  1 53 9 3.36450867E+02 1.00000000E+02
  1 66 90 3.90167419E+02 1.00000000E+02
  1 62 86 3.86611389E+02 1.00000000E+02
  1 85 47 3.75817352E+02 1.00000000E+02
  1 47 3 3.30128082E+02 1.00000000E+02
  1 45 17 3.39575134E+02 1.00000000E+02
  1 42 33 3.53579956E+02 1.00000000E+02
  1 55 11 3.37222137E+02 1.00000000E+02
  1 73 74 3.88196960E+02 1.00000000E+02
  1 77 32 3.66487396E+02 1.00000000E+02
  1 28 53 3.69452423E+02 1.00000000E+02
  1 13 67 3.90401764E+02 1.00000000E+02
  1 45 21 3.37863342E+02 1.00000000E+02
  1 75 39 3.74555328E+02 1.00000000E+02
  1 59 72 3.79437195E+02 1.00000000E+02
  1 83 53 3.81662476E+02 1.00000000E+02
  1 48 16 3.35751251E+02 1.00000000E+02
  1 51 5 3.33693176E+02 1.00000000E+02
  1 24 39 3.70617523E+02 1.00000000E+02
  1 53 10 3.40414856E+02 1.00000000E+02
  1 45 27 3.64700562E+02 1.00000000E+02
  1 43 68 3.74480743E+02 1.00000000E+02
  1 53 59 3.71809296E+02 1.00000000E+02
  1 51 49 3.60824036E+02 1.00000000E+02
  1 59 74 3.81299652E+02 1.00000000E+02
  1 76 33 3.61345917E+02 1.00000000E+02
  1 78 34 3.63856384E+02 1.00000000E+02
  1 84 44 3.73323395E+02 1.00000000E+02
  1 61 85 3.85732117E+02 1.00000000E+02
  1 44 68 3.74306610E+02 1.00000000E+02
  1 45 29 3.51894287E+02 1.00000000E+02
  1 59 65 3.75130341E+02 1.00000000E+02
  1 57 49 3.75356995E+02 1.00000000E+02
  1 59 73 3.80317719E+02 1.00000000E+02
  1 61 83 3.85227814E+02 1.00000000E+02
  1 49 63 3.70766968E+02 1.00000000E+02
  1 74 41 3.77038788E+02 1.00000000E+02
  1 83 50 3.80030762E+02 1.00000000E+02
  1 51 52 3.63502991E+02 1.00000000E+02
  1 64 18 3.43550659E+02 1.00000000E+02
  1 46 67 3.72970856E+02 1.00000000E+02
  1 90 51 3.81496094E+02 1.00000000E+02
  1 45 23 3.38061798E+02 1.00000000E+02
  1 45 18 3.36050751E+02 1.00000000E+02
  1 61 70 3.78355133E+02 1.00000000E+02
  1 50 5 3.32835449E+02 1.00000000E+02
  1 12 68 3.90016296E+02 1.00000000E+02
  1 88 49 3.78908783E+02 1.00000000E+02
  1 17 37 3.79684937E+02 1.00000000E+02
  1 41 79 3.82106415E+02 1.00000000E+02
  1 37 50 3.58236755E+02 1.00000000E+02
  1 52 59 3.73102264E+02 1.00000000E+02
  1 77 37 3.66823822E+02 1.00000000E+02
  1 72 43 3.78726257E+02 1.00000000E+02
  1 53 49 3.69659851E+02 1.00000000E+02
  1 19 36 3.77967804E+02 1.00000000E+02
  1 49 12 3.33203888E+02 1.00000000E+02
  1 27 38 3.65127289E+02 1.00000000E+02
  1 26 56 3.72560455E+02 1.00000000E+02
  1 36 30 3.54333374E+02 1.00000000E+02
  1 38 77 3.79480286E+02 1.00000000E+02
  1 50 63 3.70417145E+02 1.00000000E+02
  1 13 65 3.85816528E+02 1.00000000E+02
  1 55 60 3.71019836E+02 1.00000000E+02
  1 78 33 3.69350067E+02 1.00000000E+02
  1 18 62 3.81015656E+02 1.00000000E+02
  1 47 66 3.72850098E+02 1.00000000E+02
  1 12 71 3.91238312E+02 1.00000000E+02
  1 51 6 3.34554138E+02 1.00000000E+02
  1 20 60 3.80864197E+02 1.00000000E+02
  1 83 48 3.80150513E+02 1.00000000E+02
  1 87 48 3.77507812E+02 1.00000000E+02
  1 35 49 3.61146759E+02 1.00000000E+02
  1 36 49 3.58899536E+02 1.00000000E+02
  1 73 26 3.53298676E+02 1.00000000E+02
  1 69 72 3.83480530E+02 1.00000000E+02
  1 51 59 3.68366089E+02 1.00000000E+02
  1 55 48 3.73475708E+02 1.00000000E+02
  1 76 39 3.70547058E+02 1.00000000E+02
  1 77 38 3.66161743E+02 1.00000000E+02
  1 63 19 3.47846588E+02 1.00000000E+02
  1 19 56 3.76808716E+02 1.00000000E+02
  1 41 75 3.77975067E+02 1.00000000E+02
  1 52 54 3.71042511E+02 1.00000000E+02
  1 48 45 3.56936798E+02 1.00000000E+02
  1 81 40 3.68309265E+02 1.00000000E+02
  1 47 44 3.55588715E+02 1.00000000E+02
  1 13 72 3.90866486E+02 1.00000000E+02
  1 47 10 3.32245880E+02 1.00000000E+02
  1 23 56 3.74144257E+02 1.00000000E+02
  1 66 24 3.47359009E+02 1.00000000E+02
  1 52 55 3.67835724E+02 1.00000000E+02
  1 18 37 3.78715454E+02 1.00000000E+02
  1 64 72 3.81054962E+02 1.00000000E+02
  1 40 75 3.78655640E+02 1.00000000E+02
  1 51 57 3.69598419E+02 1.00000000E+02
  1 70 24 3.52896088E+02 1.00000000E+02
  1 25 56 3.71880768E+02 1.00000000E+02
  1 53 8 3.34764038E+02 1.00000000E+02
  1 16 64 3.83764526E+02 1.00000000E+02
  1 58 12 3.40237122E+02 1.00000000E+02
  1 83 54 3.82176697E+02 1.00000000E+02
  1 52 49 3.64743042E+02 1.00000000E+02
  1 56 48 3.73825226E+02 1.00000000E+02
  1 65 72 3.81531158E+02 1.00000000E+02
  1 84 52 3.82762451E+02 1.00000000E+02
  1 51 55 3.66626526E+02 1.00000000E+02
  1 21 58 3.76374573E+02 1.00000000E+02
  1 84 51 3.82034790E+02 1.00000000E+02
  1 64 19 3.45416443E+02 1.00000000E+02
  1 47 16 3.35253265E+02 1.00000000E+02
  1 65 90 3.88860107E+02 1.00000000E+02
  1 12 75 3.92612579E+02 1.00000000E+02
  1 18 63 3.83776764E+02 1.00000000E+02
  1 61 16 3.42798981E+02 1.00000000E+02
  1 61 17 3.45686432E+02 1.00000000E+02
  1 42 76 3.80518890E+02 1.00000000E+02
  1 78 36 3.62815155E+02 1.00000000E+02
  1 83 52 3.80801788E+02 1.00000000E+02
  1 89 50 3.80399963E+02 1.00000000E+02
  1 64 89 3.88261810E+02 1.00000000E+02
  1 48 15 3.34420105E+02 1.00000000E+02
  1 52 61 3.73117645E+02 1.00000000E+02
  1 60 69 3.75971344E+02 1.00000000E+02
  1 75 40 3.73783203E+02 1.00000000E+02
  1 65 18 3.48834015E+02 1.00000000E+02
  1 47 24 3.38667297E+02 1.00000000E+02
  1 88 50 3.80469299E+02 1.00000000E+02
  1 81 39 3.67832581E+02 1.00000000E+02
  1 35 31 3.57935608E+02 1.00000000E+02
  1 75 41 3.76263550E+02 1.00000000E+02
  1 18 36 3.77658325E+02 1.00000000E+02
  1 45 24 3.46436981E+02 1.00000000E+02
  1 29 78 3.83878876E+02 1.00000000E+02
  1 68 24 3.51050537E+02 1.00000000E+02
  1 60 82 3.84320831E+02 1.00000000E+02
  1 35 77 3.83115051E+02 1.00000000E+02
  1 15 64 3.84042999E+02 1.00000000E+02
  1 51 54 3.65087585E+02 1.00000000E+02
  1 61 71 3.79152374E+02 1.00000000E+02
  1 12 70 3.89385254E+02 1.00000000E+02
  1 44 22 3.37626678E+02 1.00000000E+02
  1 29 37 3.62217712E+02 1.00000000E+02
  1 71 25 3.50135651E+02 1.00000000E+02
END period  1

