# File generated by Flopy version 3.8.2 on 11/13/2024 at 13:13:30.
BEGIN options
END options

BEGIN griddata
  strt  LAYERED
    INTERNAL  FACTOR  1.0
         375.83044434     375.37545776     375.18939209     375.45928955     375.98764038     376.60101318     377.01977539     377.33322144     377.60934448     377.87252808     378.16412354     378.57028198     378.93139648     379.00466919     378.83035278     378.54342651     378.11129761     377.60916138     377.08496094     376.57937622     376.10150146     375.67495728     375.34887695     375.11849976     374.99810791     374.94107056     374.91149902     374.89492798     374.90008545     374.88760376     374.87728882     374.91018677     374.48251343     373.87432861     373.29656982     372.68096924     371.94113159     371.17111206     370.35330200     369.72229004     369.26098633     368.78152466     368.71395874     368.76815796     368.64593506     368.44198608     368.59301758     368.83654785     369.23449707     369.52838135     370.02697754     370.59417725     370.99060059     371.51791382     372.23199463     373.00686646     373.58383179     373.97665405     374.41516113     374.89242554     375.33306885     375.78057861     376.45672607     377.00592041     377.52041626     378.27301025     379.06903076     379.72912598     379.98971558     380.27612305     380.87216187     381.58706665     382.10504150     382.40292358     382.52392578     382.75619507     383.08560181     383.58703613     384.11715698     384.45544434     384.66012573     384.84677124     385.07107544     385.33740234     385.71228027     386.17083740     386.48440552     386.64181519     386.72830200     386.75271606     386.96548462     387.21420288     387.44961548     387.52822876     387.54260254     387.70159912     387.80172729     387.87966919     388.20843506     388.70120239     389.09674072     389.29583740     389.40191650     389.50097656     389.61499023     389.89379883     390.05776978     389.96176147     389.83514404     389.87286377     389.89059448     389.69934082     389.63418579     389.67047119     389.61639404     389.68350220     389.78698730     389.79495239     389.93698120     390.17517090     390.30554199     390.45770264     390.64587402     390.81124878     390.88812256     390.96844482     391.12057495     391.38555908     391.76046753     392.16085815     392.55468750     392.92950439     393.22195435     393.36721802     393.34036255     393.20248413     393.11163330     393.13009644     393.20956421     393.38140869     393.61923218     393.91857910     394.30392456     394.68728638     394.80975342     394.79595947     394.84429932     394.91793823     394.80426025     394.52444458     394.20291138     393.83593750     393.44027710     393.25595093     393.37210083     393.39157104     393.27172852     393.20288086     393.19583130     393.23760986     393.30889893     393.35171509     393.35079956     393.26983643     393.08163452     392.84555054     392.60095215     392.44595337     392.35330200     392.22885132     391.92041016     391.66247559     391.53009033     391.68496704     391.91320801     392.10067749     392.19223022     392.33178711     392.48925781     392.66448975     392.81072998     392.89044189     392.86254883     392.71893311     392.52819824     392.39724731     392.36401367     392.37680054     392.37893677     392.47317505     392.59457397     392.63043213     392.53948975     392.47186279     392.32730103     392.13595581     391.90548706     391.65451050     391.47039795     391.35275269     391.20169067     391.15228271     391.28176880     391.35476685     391.42788696     391.53341675     391.58908081     391.75695801     391.91976929     392.04739380     392.10842896     392.07778931     391.97766113     391.77423096     391.57556152     391.30813599     391.04223633     390.73251343     390.23715210     389.67248535     389.07739258     388.67672729     388.24761963     388.03707886     387.64437866     387.38177490     387.15216064     386.88104248     386.65814209     386.50070190     386.48876953     386.64187622     386.92465210     387.28067017     387.67114258     388.07760620     388.42868042     388.65945435     388.76315308     388.52355957     388.14443970     387.72189331     387.25482178     386.80770874     386.32342529     385.77203369     385.11999512     385.45581055     384.69836426     384.06610107
         375.77340698     375.32916260     375.17947388     375.49795532     376.10134888     376.80105591     377.26275635     377.59375000     377.87756348     378.16882324     378.46368408     378.84533691     379.22323608     379.34262085     379.19042969     378.87518311     378.38626099     377.85839844     377.32104492     376.78982544     376.29879761     375.87228394     375.51843262     375.27661133     375.14700317     375.08801270     375.06970215     375.08184814     375.15560913     375.26852417     375.33166504     375.39254761     375.13964844     374.56872559     373.80529785     372.96594238     372.06521606     371.24398804     370.42138672     369.70202637     369.27923584     368.86499023     368.80593872     368.87554932     368.61099243     368.58993530     368.90765381     369.20693970     369.51910400     369.82727051     370.05496216     370.34823608     370.84790039     371.40731812     372.10000610     372.92428589     373.53942871     374.04391479     374.58044434     375.13195801     375.65405273     376.24691772     376.68197632     377.05871582     377.59228516     378.36016846     379.14971924     379.78814697     379.98837280     380.37322998     381.08078003     381.77127075     382.18978882     382.33340454     382.32302856     382.56732178     382.87203979     383.21612549     383.70816040     384.05929565     384.35784912     384.57345581     384.79718018     385.17224121     385.47454834     385.89044189     386.23953247     386.45431519     386.61651611     386.71984863     386.93914795     387.25662231     387.48809814     387.57806396     387.64685059     387.89743042     388.10504150     388.13388062     388.31341553     388.66879272     388.96444702     389.13839722     389.24838257     389.33908081     389.42529297     389.65554810     389.66702271     389.61703491     389.55117798     389.56469727     389.55578613     389.55944824     389.57855225     389.63967896     389.70123291     389.85015869     390.01321411     389.82806396     389.76550293     390.19366455     390.31771851     390.48150635     390.74902344     390.95669556     390.99340820     391.02572632     391.12591553     391.38247681     391.80612183     392.29269409     392.78076172     393.22930908     393.49075317     393.59402466     393.43841553     393.16601562     392.97286987     392.95346069     392.97753906     393.19064331     393.45309448     393.72552490     394.08270264     394.47476196     394.68164062     394.64782715     394.58837891     394.68066406     394.79043579     394.62875366     394.33227539     394.02880859     393.76345825     393.63046265     393.67364502     393.61892700     393.50247192     393.41513062     393.37933350     393.40521240     393.46725464     393.46420288     393.42114258     393.32098389     393.15954590     392.97366333     392.80978394     392.69027710     392.57052612     392.32089233     391.60867310     391.45803833     391.34393311     391.47476196     391.86273193     392.10122681     392.17056274     392.30139160     392.46917725     392.63745117     392.81454468     392.94302368     392.98425293     392.95117188     392.82186890     392.66741943     392.56167603     392.49847412     392.44937134     392.53552246     392.66720581     392.69964600     392.60064697     392.52380371     392.37677002     392.17169189     391.93899536     391.74523926     391.63571167     391.47555542     391.37261963     391.33413696     391.36428833     391.38345337     391.44058228     391.57785034     391.67700195     391.79483032     391.93734741     392.06274414     392.10705566     392.07586670     391.95806885     391.71423340     391.39685059     391.05105591     390.79855347     390.53750610     390.10961914     389.56762695     389.01885986     388.60049438     388.07516479     387.82788086     387.66317749     387.32113647     387.04592896     386.86526489     386.75924683     386.70010376     386.79168701     387.02813721     387.37228394     387.76440430     388.14053345     388.49148560     388.76293945     388.85113525     388.74960327     388.38183594     387.94094849     387.49783325     387.05297852     386.59979248     386.12893677     385.64959717     385.12161255     385.51354980     384.95492554     384.33093262
         375.72616577     375.30410767     375.15646362     375.50976562     376.11318970     376.85159302     377.39459229     377.79260254     378.11975098     378.43905640     378.76940918     379.13796997     379.49310303     379.66540527     379.57223511     379.20211792     378.62164307     378.00415039     377.41632080     376.85696411     376.34695435     375.93899536     375.58932495     375.34036255     375.20596313     375.13522339     375.11898804     375.17150879     375.35830688     375.63201904     375.81210327     375.88064575     375.66760254     375.19726562     374.27087402     373.20639038     372.21627808     371.28399658     370.48516846     369.68664551     369.54376221     369.47845459     369.38061523     369.38778687     368.74130249     369.10366821     369.39193726     369.55053711     369.68283081     369.92587280     370.15512085     370.47531128     370.85525513     371.52517700     372.21731567     372.92749023     373.46557617     374.10046387     374.77243042     375.42221069     375.90133667     376.52420044     376.90444946     377.27917480     377.83529663     378.42736816     379.12313843     379.72967529     379.94668579     380.37896729     381.09515381     381.66204834     382.05865479     382.16760254     382.16625977     382.40429688     382.63961792     382.84149170     383.15625000     383.52658081     383.89898682     384.13949585     384.34664917     384.68106079     384.91000366     385.15441895     385.48828125     385.80285645     386.06567383     386.37182617     386.68496704     387.05224609     387.36306763     387.49819946     387.63272095     387.90957642     388.21032715     388.29806519     388.37646484     388.58547974     388.83590698     389.06738281     389.23541260     389.37573242     389.46929932     389.50778198     389.39050293     389.37783813     389.55545044     389.55062866     389.44674683     389.72698975     390.02209473     390.26119995     390.45498657     390.52673340     390.63317871     390.62164307     390.50726318     390.52609253     390.60824585     390.77307129     391.14190674     391.34423828     391.41036987     391.41329956     391.31988525     391.51251221     391.87286377     392.30599976     392.80953979     393.25775146     393.55960083     393.66381836     393.64602661     393.52731323     393.19540405     392.81756592     392.77719116     393.34420776     393.61538696     393.89413452     394.06484985     394.32339478     394.55764771     394.56192017     394.50531006     394.62945557     394.85925293     394.80554199     394.55529785     394.29153442     394.12121582     394.04901123     394.00454712     393.90213013     393.79473877     393.69845581     393.65209961     393.65652466     393.67242432     393.60040283     393.49554443     393.38986206     393.24978638     393.09915161     392.98464966     392.90917969     392.77236938     392.50936890     391.91598511     391.75076294     391.53701782     391.51068115     391.85278320     392.10574341     392.20816040     392.35998535     392.55194092     392.71005249     392.88073730     393.02206421     393.09674072     393.16744995     393.16223145     393.04476929     392.87829590     392.73089600     392.66299438     392.69424438     392.81216431     392.84194946     392.74291992     392.61367798     392.42883301     392.24420166     392.01818848     391.78982544     391.64572144     391.48690796     391.39450073     391.38467407     391.40029907     391.34124756     391.42559814     391.60671997     391.73324585     391.84756470     392.00619507     392.17361450     392.17700195     392.10806274     391.94790649     391.66189575     391.26049805     390.86236572     390.56072998     390.30615234     389.92010498     389.42968750     388.96362305     388.52435303     388.11889648     387.91482544     387.74993896     387.47293091     387.27722168     387.17160034     387.09222412     387.08312988     387.20571899     387.46591187     387.83987427     388.26867676     388.64266968     388.89993286     389.00387573     388.92797852     388.67266846     388.22271729     387.73184204     387.26861572     386.84219360     386.39337158     385.93624878     385.52413940     385.13574219     385.57223511     385.46661377     385.13568115
         375.62374878     375.08129883     374.94808960     375.52911377     376.29376221     377.06100464     377.61035156     378.02551270     378.39828491     378.74386597     379.09686279     379.47418213     379.82675171     380.05746460     379.99655151     379.57522583     378.93554688     378.25344849     377.61392212     376.99966431     376.41940308     375.95767212     375.57012939     375.28842163     375.12078857     375.03155518     375.02127075     375.13436890     375.46569824     375.91790771     376.31704712     376.45211792     376.15444946     375.62652588     374.73199463     373.49880981     372.43572998     371.46054077     370.42510986     369.61547852     369.12435913     368.66317749     368.54306030     368.48345947     368.21646118     368.43139648     368.80447388     369.41967773     369.70928955     369.89923096     370.06539917     370.37020874     370.74508667     371.22640991     371.74365234     372.44201660     373.16244507     373.85745239     374.48205566     375.18536377     375.90258789     376.57339478     376.94186401     377.32980347     377.83477783     378.41955566     379.06497192     379.51986694     379.78085327     380.16323853     380.73184204     381.21817017     381.48690796     381.63116455     381.87384033     382.18395996     382.42764282     382.59460449     382.81457520     383.11499023     383.45605469     383.71707153     383.96463013     384.16046143     384.32461548     384.44598389     384.63446045     384.92568970     385.22354126     385.57489014     385.99871826     386.51345825     387.01272583     387.24377441     387.40975952     387.72805786     388.08377075     388.18994141     388.13391113     388.22122192     388.43942261     388.75885010     389.01635742     389.11193848     389.12847900     389.00256348     389.00079346     389.15548706     389.33428955     389.11520386     388.90536499     389.40765381     390.04855347     390.29483032     390.29434204     390.29968262     390.27490234     390.34213257     390.51559448     390.53771973     390.51138306     390.54992676     390.70660400     390.89093018     391.03570557     391.26269531     391.37643433     391.47357178     391.66345215     391.91943359     392.30352783     392.80902100     393.24295044     393.41720581     393.53176880     393.58816528     393.46536255     393.10183716     393.16445923     393.62472534     393.83624268     393.97225952     393.76785278     394.09213257     394.44491577     394.58892822     394.69982910     394.87557983     395.06933594     394.99145508     394.72250366     394.48608398     394.35791016     394.29110718     394.22979736     394.15341187     394.07260132     393.94937134     393.87048340     393.81100464     393.73861694     393.63415527     393.49404907     393.38781738     393.29116821     393.21401978     393.13500977     393.05685425     392.94372559     392.77676392     392.40585327     392.00225830     391.69985962     391.67193604     391.90872192     392.09057617     392.24249268     392.46432495     392.66986084     392.82449341     393.01544189     393.13934326     393.21414185     393.33502197     393.42507935     393.41400146     393.28637695     393.09625244     392.98599243     392.92352295     392.95269775     392.94308472     392.86654663     392.69470215     392.49969482     392.32839966     392.10986328     391.91131592     391.72485352     391.57186890     391.50030518     391.48889160     391.45932007     391.41589355     391.45147705     391.60989380     391.74795532     391.89572144     392.10144043     392.09188843     392.02960205     391.98678589     391.85540771     391.52410889     391.09478760     390.68563843     390.34191895     390.03329468     389.69012451     389.23483276     388.75112915     388.38555908     388.14358521     388.00964355     387.88684082     387.80609131     387.70596313     387.68609619     387.58319092     387.64645386     387.72814941     387.91339111     388.24847412     388.67639160     389.05856323     389.22564697     389.10702515     388.84738159     388.51211548     388.01693726     387.49331665     387.01391602     386.60165405     386.18093872     385.77981567     385.43643188     385.15994263     385.59564209     385.50399780     385.02966309
         374.96609497     374.33078003     374.50329590     375.26269531     376.20587158     377.02117920     377.55548096     377.99066162     378.41229248     378.81942749     379.21365356     379.58123779     379.93838501     380.17764282     380.09292603     379.69338989     379.01626587     378.26824951     377.57516479     376.87466431     376.23593140     375.71444702     375.25988770     374.90310669     374.66366577     374.51916504     374.53948975     374.75317383     375.19070435     375.74526978     376.25384521     376.43695068     376.12716675     375.49282837     374.56954956     373.46386719     372.36166382     371.35745239     370.54394531     369.68652344     369.03982544     368.48245239     368.28625488     368.10168457     368.13848877     368.37527466     368.61480713     369.07974243     369.46969604     369.73709106     370.00015259     370.34466553     370.74520874     371.14129639     371.54367065     372.06246948     372.66818237     373.34274292     374.05947876     374.86047363     375.71200562     376.49514771     376.99353027     377.43246460     377.86218262     378.33782959     378.94869995     379.32940674     379.58190918     379.82421875     380.16201782     380.53747559     380.92434692     381.25631714     381.51290894     381.78488159     382.07269287     382.33526611     382.56005859     382.77551270     383.02282715     383.24752808     383.47723389     383.66256714     383.84866333     384.00961304     384.16558838     384.42266846     384.72967529     385.02191162     385.37142944     385.85986328     386.39187622     386.70138550     386.92651367     387.20352173     387.49081421     387.64477539     387.70370483     387.75668335     387.86645508     388.11566162     388.27029419     388.21572876     388.09701538     388.05841064     388.14465332     388.34774780     388.47030640     388.41586304     388.47476196     388.77844238     389.20260620     389.40664673     389.44653320     389.51516724     389.52288818     389.59182739     389.79907227     389.86386108     389.84753418     389.90774536     390.00332642     390.12915039     390.29470825     390.69638062     391.29083252     391.37289429     391.57418823     391.91036987     392.26342773     392.65026855     393.03848267     393.33898926     393.47262573     393.52789307     393.53277588     393.38043213     393.46624756     393.58154297     393.34698486     393.18920898     393.46005249     394.03302002     394.37322998     394.57034302     394.74096680     394.87429810     394.96447754     394.85443115     394.51211548     394.35113525     394.28305054     394.25677490     394.21017456     394.15368652     394.07003784     393.91973877     393.80975342     393.75927734     393.67581177     393.57461548     393.47720337     393.37606812     393.32290649     393.27770996     393.21127319     393.11145020     392.96090698     392.83151245     392.57647705     392.18814087     391.96133423     391.95455933     392.09857178     392.20413208     392.32302856     392.56597900     392.69729614     392.90689087     393.12207031     393.23815918     393.26965332     393.32846069     393.40002441     393.46966553     393.49948120     393.40594482     393.25378418     393.11236572     393.05276489     392.99884033     392.90924072     392.75799561     392.57293701     392.39663696     392.16641235     391.95053101     391.81869507     391.69644165     391.63635254     391.57553101     391.53320312     391.51034546     391.52883911     391.59191895     391.71527100     391.86886597     391.93914795     391.87637329     391.90203857     391.88748169     391.76635742     391.43057251     390.98797607     390.55239868     390.17016602     389.82562256     389.46707153     389.06997681     388.70803833     388.45693970     388.29779053     388.19210815     388.09890747     388.04983521     388.00085449     387.98471069     387.97708130     388.03350830     388.10455322     388.26855469     388.55047607     388.91531372     389.24566650     389.37838745     389.13146973     388.75106812     388.35070801     387.83618164     387.29034424     386.80627441     386.42514038     386.08355713     385.76757812     385.45364380     385.20770264     385.63052368     385.06680298     384.31491089
         374.25451660     373.73959351     374.18618774     375.01583862     375.95187378     376.78433228     377.37710571     377.89794922     378.40341187     378.85690308     379.25769043     379.63275146     379.97000122     380.19247437     380.15655518     379.85729980     379.17712402     378.39859009     377.65151978     376.89224243     376.20126343     375.59829712     375.08776855     374.66775513     374.35812378     374.15789795     374.15545654     374.41818237     374.89346313     375.47036743     376.00210571     376.26873779     376.03927612     375.37936401     374.43072510     373.36956787     372.29559326     371.38665771     370.64248657     369.84552002     368.99826050     368.27392578     367.96362305     367.90423584     368.18682861     368.39245605     368.70816040     369.06762695     369.36938477     369.63912964     369.94332886     370.32949829     370.78344727     371.20904541     371.55599976     371.93368530     372.36102295     372.95288086     373.67727661     374.54794312     375.48626709     376.35742188     376.91387939     377.43591309     377.84500122     378.22158813     378.72872925     379.11740112     379.39270020     379.57434082     379.84271240     380.31942749     381.00448608     381.52633667     381.72027588     381.80606079     381.97225952     382.19046021     382.39593506     382.57666016     382.78570557     383.01998901     383.27377319     383.51089478     383.71170044     383.88226318     384.03521729     384.26208496     384.55737305     384.84149170     385.15002441     385.54983521     385.96759033     386.22521973     386.40026855     386.63739014     386.91510010     387.13165283     387.29833984     387.45208740     387.58776855     387.78182983     387.86557007     387.76269531     387.65243530     387.68777466     387.80902100     388.00347900     388.18841553     388.27532959     388.41842651     388.52374268     388.80352783     389.02041626     389.04846191     389.07275391     389.11889648     389.22824097     389.29214478     389.30963135     389.35400391     389.46063232     389.56225586     389.65075684     389.87139893     390.24087524     390.80380249     390.87362671     391.14981079     391.62600708     392.23583984     392.67736816     392.99584961     393.42282104     393.50668335     393.38354492     393.33990479     393.33325195     393.43399048     393.57360840     393.11676025     392.67092896     393.36355591     394.10159302     394.25247192     394.39123535     394.48733521     394.57598877     394.70541382     394.58383179     394.27102661     394.14089966     394.13473511     394.15927124     394.15884399     394.11987305     394.01406860     393.86236572     393.75042725     393.71704102     393.63031006     393.48767090     393.40704346     393.34375000     393.31198120     393.27819824     393.20782471     393.11911011     392.96774292     392.87481689     392.73840332     392.55294800     392.35671997     392.27481079     392.33993530     392.37973022     392.51754761     392.75820923     392.88488770     393.06393433     393.22827148     393.38586426     393.42346191     393.44427490     393.43267822     393.44726562     393.51193237     393.50354004     393.45065308     393.31643677     393.21414185     393.11550903     392.97869873     392.78103638     392.65197754     392.47424316     392.13977051     391.94229126     391.84506226     391.71725464     391.66738892     391.60772705     391.54910278     391.53295898     391.56695557     391.58142090     391.64465332     391.75723267     391.80004883     391.79400635     391.81561279     391.82266235     391.72119141     391.43643188     391.05181885     390.62725830     390.20336914     389.80157471     389.43130493     389.06817627     388.75546265     388.55126953     388.43432617     388.33612061     388.26205444     388.23574829     388.22216797     388.27050781     388.33694458     388.37921143     388.44332886     388.60491943     388.87637329     389.19564819     389.46405029     389.51412964     389.15490723     388.69607544     388.24450684     387.70587158     387.17880249     386.75067139     386.41940308     386.12823486     385.82843018     385.51303101     385.29864502     385.70077515     384.88470459     384.58587646
         373.56307983     373.13311768     374.09017944     375.08300781     376.01922607     376.81109619     377.37197876     377.87756348     378.40524292     378.87954712     379.29196167     379.64395142     379.88034058     380.02276611     380.02127075     379.86224365     379.36007690     378.63922119     377.82473755     377.01440430     376.26818848     375.62463379     375.05337524     374.59634399     374.23159790     373.95379639     373.86389160     374.11959839     374.62710571     375.23324585     375.76052856     376.08563232     376.01989746     375.48138428     374.60659790     373.60055542     372.57995605     371.62335205     370.83666992     369.90386963     369.02899170     368.13366699     367.71868896     368.07177734     368.20932007     368.40472412     368.73318481     368.91479492     369.11791992     369.43634033     369.77966309     370.20181274     370.69519043     371.20474243     371.67965698     372.00726318     372.32308960     372.79275513     373.41549683     374.21786499     375.15087891     376.05725098     376.65478516     377.17440796     377.61709595     377.97610474     378.34680176     378.70257568     378.94827271     379.19744873     379.63702393     380.17657471     380.82473755     381.46801758     381.86566162     382.03146362     382.10583496     382.19427490     382.33398438     382.49343872     382.71157837     382.93539429     383.18603516     383.44949341     383.68136597     383.87289429     384.05838013     384.28060913     384.53005981     384.77441406     385.05075073     385.40798950     385.75122070     385.85931396     385.94409180     386.10208130     386.33575439     386.60113525     386.84942627     387.11273193     387.30340576     387.45306396     387.50454712     387.40484619     387.36294556     387.46969604     387.60787964     387.72616577     387.88513184     387.97872925     388.09301758     388.21392822     388.46420288     388.70596313     388.70761108     388.69931030     388.73617554     388.83029175     388.80404663     388.80416870     388.91366577     389.10906982     389.25466919     389.38430786     389.63339233     389.95275879     390.38238525     390.48675537     390.73800659     391.24023438     391.81903076     392.47424316     392.98971558     393.24667358     393.28494263     393.33111572     392.86868286     392.77465820     393.32669067     393.51724243     393.02893066     392.74707031     393.37170410     394.02609253     394.04165649     394.09646606     394.12585449     394.20135498     394.30252075     394.19390869     393.89889526     393.86602783     393.94522095     394.01263428     394.03338623     394.02841187     393.95230103     393.81878662     393.69210815     393.63977051     393.53784180     393.39144897     393.32403564     393.27767944     393.25723267     393.23184204     393.16632080     393.10211182     392.98339844     392.94647217     392.88012695     392.75234985     392.64624023     392.61416626     392.63879395     392.65307617     392.75332642     392.95297241     393.08804321     393.25497437     393.32870483     393.40176392     393.46432495     393.55261230     393.48764038     393.44433594     393.45086670     393.45385742     393.46002197     393.46481323     393.39776611     393.26333618     393.05334473     392.81610107     392.67306519     392.45806885     392.15130615     392.00665283     391.89712524     391.76611328     391.64926147     391.57797241     391.52719116     391.51895142     391.52316284     391.53765869     391.55743408     391.62930298     391.65243530     391.65530396     391.65713501     391.65881348     391.55972290     391.34671021     391.02102661     390.62942505     390.19409180     389.78955078     389.43576050     389.11898804     388.82638550     388.67776489     388.58139038     388.51779175     388.49893188     388.51718140     388.54879761     388.64572144     388.77420044     388.84176636     388.88018799     389.00994873     389.22033691     389.47378540     389.66290283     389.62002563     389.20846558     388.75280762     388.33538818     387.84997559     387.35964966     386.96957397     386.64099121     386.30044556     385.97760010     385.64498901     385.34332275     385.71514893     384.99267578     384.90136719