# File generated by Flopy version 3.8.2 on 11/07/2024 at 18:43:43.
BEGIN options
END options

BEGIN dimensions
  NPER  1
END dimensions

BEGIN perioddata
       1.00000000  1       1.00000000
END perioddata

