# File generated by Flopy version 3.8.2 on 12/12/2024 at 09:58:33.
BEGIN options
  BUDGET  FILEOUT  EPM_wsgrid.bud
  HEAD  FILEOUT  EPM_wsgrid.hds
END options

BEGIN period  1
  SAVE  HEAD  ALL
  SAVE  BUDGET  ALL
  PRINT  HEAD  ALL
  PRINT  BUDGET  ALL
END period  1

