# File generated by Flopy version 3.8.2 on 11/07/2024 at 18:43:43.
BEGIN options
  PRINT_OPTION  all
END options

BEGIN linear
  INNER_MAXIMUM  100
END linear

