# File generated by Flopy version 3.8.2 on 11/13/2024 at 14:42:23.
BEGIN options
  SAVE_FLOWS
  NEWTON  UNDER_RELAXATION
END options

BEGIN packages
  DIS6  EPM_wsgrid.dis  dis
  DRN6  EPM_wsgrid.drn  drn_0
  IC6  EPM_wsgrid.ic  ic
  NPF6  EPM_wsgrid.npf  npf
  OC6  EPM_wsgrid.oc  oc
END packages

