# File generated by Flopy version 3.8.2 on 11/26/2024 at 15:46:17.
BEGIN options
  SAVE_FLOWS
END options

BEGIN dimensions
  MAXBOUND  76
END dimensions

BEGIN period  1
  2 14 7 3.74423584E+02 6.09600000E+02
  1 24 38 3.88191345E+02 1.00000000E+01
  1 17 30 3.84972534E+02 1.00000000E+01
  1 19 32 3.84930908E+02 1.00000000E+01
  1 17 16 3.76941284E+02 1.00000000E+01
  1 22 34 3.87161133E+02 1.00000000E+01
  1 28 19 3.82646301E+02 1.00000000E+01
  1 29 19 3.83034088E+02 1.00000000E+01
  1 18 17 3.77609253E+02 1.00000000E+01
  1 22 18 3.80060669E+02 1.00000000E+01
  1 33 20 3.85457428E+02 1.00000000E+01
  1 37 22 3.88189880E+02 1.00000000E+01
  1 21 34 3.86141113E+02 1.00000000E+01
  1 24 37 3.88146820E+02 1.00000000E+01
  1 18 12 3.77878510E+02 1.00000000E+01
  1 17 21 3.82559448E+02 1.00000000E+01
  1 25 39 3.88774841E+02 1.00000000E+01
  1 12 8 3.73182648E+02 1.00000000E+01
  1 21 18 3.79629547E+02 1.00000000E+01
  1 22 36 3.87540253E+02 1.00000000E+01
  1 26 19 3.82452026E+02 1.00000000E+01
  1 33 19 3.84953613E+02 1.00000000E+01
  1 35 21 3.86866241E+02 1.00000000E+01
  1 17 18 3.78363922E+02 1.00000000E+01
  1 16 26 3.82234192E+02 1.00000000E+01
  1 32 19 3.84118225E+02 1.00000000E+01
  1 13 9 3.72500427E+02 1.00000000E+01
  1 16 20 3.80810211E+02 1.00000000E+01
  1 16 22 3.80921783E+02 1.00000000E+01
  1 17 17 3.77394867E+02 1.00000000E+01
  1 16 23 3.82258148E+02 1.00000000E+01
  1 18 16 3.76417664E+02 1.00000000E+01
  1 23 37 3.87752686E+02 1.00000000E+01
  1 15 10 3.74133179E+02 1.00000000E+01
  1 15 23 3.81476654E+02 1.00000000E+01
  1 20 18 3.79966431E+02 1.00000000E+01
  1 15 24 3.81328461E+02 1.00000000E+01
  1 23 18 3.80731506E+02 1.00000000E+01
  1 31 19 3.83805847E+02 1.00000000E+01
  1 25 18 3.80799652E+02 1.00000000E+01
  1 20 17 3.79268433E+02 1.00000000E+01
  1 36 22 3.88443939E+02 1.00000000E+01
  1 34 20 3.85541290E+02 1.00000000E+01
  1 16 27 3.82726379E+02 1.00000000E+01
  1 30 19 3.83431732E+02 1.00000000E+01
  1 18 15 3.75479889E+02 1.00000000E+01
  1 38 22 3.89154968E+02 1.00000000E+01
  1 26 39 3.89756775E+02 1.00000000E+01
  1 19 31 3.84606689E+02 1.00000000E+01
  1 17 15 3.76392120E+02 1.00000000E+01
  1 16 11 3.74301575E+02 1.00000000E+01
  1 20 33 3.85539276E+02 1.00000000E+01
  1 26 18 3.81237885E+02 1.00000000E+01
  1 23 36 3.87284637E+02 1.00000000E+01
  1 16 21 3.80585510E+02 1.00000000E+01
  1 18 13 3.75183472E+02 1.00000000E+01
  1 17 19 3.79726227E+02 1.00000000E+01
  1 25 38 3.89165955E+02 1.00000000E+01
  1 14 10 3.73668884E+02 1.00000000E+01
  1 18 30 3.84278778E+02 1.00000000E+01
  1 17 20 3.80829346E+02 1.00000000E+01
  1 24 18 3.80676941E+02 1.00000000E+01
  1 22 35 3.86709229E+02 1.00000000E+01
  1 27 19 3.82391968E+02 1.00000000E+01
  1 19 17 3.77898468E+02 1.00000000E+01
  1 15 25 3.81821533E+02 1.00000000E+01
  1 36 21 3.87964417E+02 1.00000000E+01
  1 16 25 3.82797943E+02 1.00000000E+01
  1 17 28 3.83077271E+02 1.00000000E+01
  1 17 27 3.83598572E+02 1.00000000E+01
  1 20 32 3.85764099E+02 1.00000000E+01
  1 18 14 3.75125366E+02 1.00000000E+01
  1 17 29 3.83577637E+02 1.00000000E+01
  1 20 34 3.86579437E+02 1.00000000E+01
  1 17 12 3.74824341E+02 1.00000000E+01
  1 34 21 3.87097076E+02 1.00000000E+01
END period  1

