# File generated by Flopy version 3.8.2 on 11/26/2024 at 15:46:17.
BEGIN options
END options

BEGIN nonlinear
  OUTER_DVCLOSE       0.00100000
  OUTER_MAXIMUM  50
END nonlinear

BEGIN linear
  INNER_MAXIMUM  100
  INNER_DVCLOSE       0.00100000
  inner_rclose       0.00100000
  LINEAR_ACCELERATION  bicgstab
END linear

