# File generated by Flopy version 3.8.2 on 11/13/2024 at 14:42:24.
BEGIN options
  SAVE_FLOWS
END options

BEGIN dimensions
  MAXBOUND  1
END dimensions

BEGIN period  1
  2 67 35 3.73110352E+02 6.09600000E+02
END period  1

