# File generated by Flopy version 3.8.2 on 11/26/2024 at 15:46:17.
BEGIN options
  SAVE_FLOWS
  NEWTON  UNDER_RELAXATION
END options

BEGIN packages
  RCH6  EPM_wsgrid.rcha  rch
  DIS6  EPM_wsgrid.dis  dis
  DRN6  EPM_wsgrid.drn  drn_0
  IC6  EPM_wsgrid.ic  ic
  NPF6  EPM_wsgrid.npf  npf
  STO6  EPM_wsgrid.sto  sto
  OC6  EPM_wsgrid.oc  oc
END packages

