# File generated by Flopy version 3.8.2 on 11/13/2024 at 13:13:31.
BEGIN options
END options

BEGIN dimensions
  MAXBOUND  3738
END dimensions

BEGIN period  1
  1 1 154 3.94255951E+02
  1 1 155 3.94372101E+02
  1 1 156 3.94391571E+02
  1 1 157 3.94271729E+02
  1 1 158 3.94202881E+02
  1 2 154 3.94630463E+02
  1 2 158 3.94415131E+02
  1 2 159 3.94379333E+02
  1 3 153 3.95121216E+02
  1 3 154 3.95049011E+02
  1 3 159 3.94652100E+02
  1 3 160 3.94656525E+02
  1 4 152 3.95486084E+02
  1 4 153 3.95357910E+02
  1 4 160 3.94811005E+02
  1 4 161 3.94738617E+02
  1 4 162 3.94634155E+02
  1 4 163 3.94494049E+02
  1 4 164 3.94387817E+02
  1 4 165 3.94291168E+02
  1 4 166 3.94214020E+02
  1 4 167 3.94135010E+02
  1 5 150 3.95854431E+02
  1 5 151 3.95512115E+02
  1 5 152 3.95351135E+02
  1 5 167 3.94211273E+02
  1 5 194 3.93757996E+02
  1 5 195 3.93572937E+02
  1 5 196 3.93396637E+02
  1 6 150 3.95583832E+02
  1 6 167 3.94207825E+02
  1 6 194 3.93781036E+02
  1 6 196 3.93474243E+02
  1 7 150 3.95193909E+02
  1 7 167 3.94166321E+02
  1 7 194 3.93816101E+02
  1 7 196 3.93458069E+02
  1 7 197 3.93151306E+02
  1 7 198 3.93006653E+02
  1 7 199 3.92897125E+02
  1 8 150 3.94775696E+02
  1 8 167 3.94145172E+02
  1 8 194 3.93920685E+02
  1 8 199 3.92944855E+02
  1 9 143 3.94099426E+02
  1 9 144 3.94613159E+02
  1 9 145 3.94740814E+02
  1 9 150 3.94504456E+02
  1 9 167 3.94184723E+02
  1 9 194 3.94119659E+02
  1 9 199 3.92964844E+02
  1 10 141 3.94101990E+02
  1 10 142 3.93832764E+02
  1 10 143 3.94167419E+02
  1 10 145 3.94693359E+02
  1 10 146 3.94629944E+02
  1 10 147 3.94597107E+02
  1 10 148 3.94607086E+02
  1 10 149 3.94579651E+02
  1 10 150 3.94406860E+02
  1 10 167 3.94233185E+02
  1 10 168 3.94259827E+02
  1 10 174 3.94490234E+02
  1 10 175 3.94558685E+02
  1 10 176 3.94540771E+02
  1 10 194 3.94264618E+02
  1 10 199 3.93019958E+02
  1 11 141 3.93840851E+02
  1 11 168 3.94308044E+02
  1 11 169 3.94278900E+02
  1 11 174 3.94503632E+02
  1 11 176 3.94578278E+02
  1 11 194 3.94295532E+02
  1 11 195 3.94101746E+02
  1 11 196 3.93876709E+02
  1 11 199 3.93092834E+02
  1 11 200 3.92937836E+02
  1 12 141 3.93756042E+02
  1 12 169 3.94325439E+02
  1 12 170 3.94347931E+02
  1 12 171 3.94493286E+02
  1 12 172 3.94596222E+02
  1 12 173 3.94576111E+02
  1 12 174 3.94547119E+02
  1 12 176 3.94616455E+02
  1 12 177 3.94713898E+02
  1 12 196 3.93903748E+02
  1 12 200 3.92981476E+02
  1 13 140 3.93291962E+02
  1 13 141 3.93705566E+02
  1 13 177 3.94734772E+02
  1 13 178 3.94660828E+02
  1 13 188 3.93781799E+02
  1 13 196 3.93825378E+02
  1 13 197 3.93625885E+02
  1 13 200 3.93064667E+02
  1 14 140 3.93137299E+02
  1 14 178 3.94650024E+02
  1 14 187 3.93505127E+02
  1 14 188 3.93474396E+02
  1 14 189 3.93541046E+02
  1 14 190 3.93642151E+02
  1 14 191 3.93689453E+02
  1 14 192 3.93765076E+02
  1 14 193 3.93837921E+02
  1 14 194 3.93836029E+02
  1 14 196 3.93684937E+02
  1 14 200 3.93154999E+02
  1 15 139 3.92562256E+02
  1 15 140 3.92813416E+02
  1 15 178 3.94654968E+02
  1 15 186 3.93450714E+02
  1 15 187 3.93264526E+02
  1 15 194 3.93586426E+02
  1 15 195 3.93570221E+02
  1 15 196 3.93488434E+02
  1 15 200 3.93204071E+02
  1 16 136 3.91760406E+02
  1 16 137 3.91906891E+02
  1 16 138 3.92073883E+02
  1 16 139 3.92271820E+02
  1 16 178 3.94659607E+02
  1 16 179 3.94533356E+02
  1 16 185 3.93520844E+02
  1 16 186 3.93329346E+02
  1 16 194 3.93207520E+02
  1 16 195 3.93314758E+02
  1 16 200 3.93140472E+02
  1 17 135 3.91664917E+02
  1 17 136 3.91686737E+02
  1 17 179 3.94639252E+02
  1 17 185 3.93698395E+02
  1 17 200 3.93051361E+02
  1 18 135 3.91542877E+02
  1 18 179 3.94727997E+02
  1 18 180 3.94565155E+02
  1 18 185 3.93878418E+02
  1 18 200 3.92910675E+02
  1 19 135 3.91407104E+02
  1 19 180 3.94580231E+02
  1 19 181 3.94451050E+02
  1 19 182 3.94326477E+02
  1 19 183 3.94194885E+02
  1 19 184 3.94080048E+02
  1 19 185 3.93971375E+02
  1 19 200 3.92713776E+02
  1 20 134 3.91128754E+02
  1 20 135 3.91192200E+02
  1 20 200 3.92531006E+02
  1 21 134 3.91100281E+02
  1 21 200 3.92378601E+02
  1 21 201 3.92451508E+02
  1 22 131 3.89513275E+02
  1 22 132 3.89828613E+02
  1 22 133 3.90830139E+02
  1 22 134 3.90994720E+02
  1 22 201 3.92353912E+02
  1 23 130 3.90312469E+02
  1 23 131 3.89901154E+02
  1 23 201 3.92253174E+02
  1 24 130 3.90379547E+02
  1 24 201 3.92072388E+02
  1 25 130 3.90554565E+02
  1 25 201 3.91804108E+02
  1 26 130 3.90740021E+02
  1 26 201 3.91567963E+02
  1 27 130 3.90824280E+02
  1 27 131 3.91142426E+02
  1 27 201 3.91359406E+02
  1 28 131 3.91029999E+02
  1 28 201 3.91217041E+02
  1 29 131 3.90750153E+02
  1 29 201 3.91120331E+02
  1 30 130 3.90399323E+02
  1 30 131 3.90369781E+02
  1 30 201 3.91075653E+02
  1 31 130 3.89989441E+02
  1 31 201 3.91025543E+02
  1 32 130 3.89776306E+02
  1 32 201 3.90982025E+02
  1 33 130 3.89546356E+02
  1 33 201 3.90909058E+02
  1 34 130 3.89468842E+02
  1 34 201 3.90825928E+02
  1 34 202 3.90904846E+02
  1 35 130 3.89110382E+02
  1 35 202 3.90854004E+02
  1 36 130 3.88562622E+02
  1 36 202 3.90804077E+02
  1 36 203 3.90869720E+02
  1 37 130 3.88203949E+02
  1 37 203 3.90823730E+02
  1 38 130 3.88051605E+02
  1 38 131 3.87939758E+02
  1 38 203 3.90823242E+02
  1 39 131 3.87883789E+02
  1 39 132 3.87687927E+02
  1 39 203 3.90800659E+02
  1 40 132 3.87648712E+02
  1 40 203 3.90813416E+02
  1 41 32 3.81275360E+02
  1 41 33 3.80721069E+02
  1 41 34 3.80278778E+02
  1 41 35 3.79871643E+02
  1 41 36 3.79504944E+02
  1 41 37 3.79440460E+02
  1 41 38 3.79669495E+02
  1 41 39 3.79942566E+02
  1 41 40 3.80145081E+02
  1 41 130 3.88042755E+02
  1 41 131 3.87970795E+02
  1 41 132 3.87734467E+02
  1 41 203 3.90899017E+02
  1 41 204 3.90998444E+02
  1 42 32 3.81484161E+02
  1 42 40 3.80573822E+02
  1 42 41 3.80961761E+02
  1 42 44 3.81602570E+02
  1 42 45 3.81822815E+02
  1 42 46 3.81512573E+02
  1 42 47 3.81057983E+02
  1 42 48 3.80462372E+02
  1 42 130 3.88051239E+02
  1 42 204 3.91123169E+02
  1 42 205 3.91231384E+02
  1 43 32 3.81407288E+02
  1 43 33 3.81236267E+02
  1 43 41 3.81233429E+02
  1 43 43 3.81587158E+02
  1 43 44 3.81884247E+02
  1 43 48 3.81155518E+02
  1 43 49 3.80486542E+02
  1 43 50 3.80073944E+02
  1 43 51 3.80137299E+02
  1 43 130 3.88109070E+02
  1 43 205 3.91348572E+02
  1 44 33 3.81391083E+02
  1 44 34 3.81229919E+02
  1 44 41 3.81436646E+02
  1 44 42 3.81502136E+02
  1 44 43 3.81602081E+02
  1 44 51 3.80949219E+02
  1 44 52 3.81085785E+02
  1 44 130 3.88111572E+02
  1 44 205 3.91492065E+02
  1 45 34 3.81287842E+02
  1 45 35 3.81274994E+02
  1 45 52 3.81782379E+02
  1 45 53 3.81925018E+02
  1 45 54 3.81641876E+02
  1 45 130 3.88094147E+02
  1 45 205 3.91630981E+02
  1 46 35 3.81101471E+02
  1 46 54 3.82377441E+02
  1 46 55 3.82017395E+02
  1 46 109 3.86835541E+02
  1 46 110 3.86851044E+02
  1 46 111 3.86897369E+02
  1 46 112 3.86910797E+02
  1 46 125 3.87930939E+02
  1 46 126 3.87976318E+02
  1 46 127 3.88004639E+02
  1 46 128 3.88006287E+02
  1 46 129 3.87982941E+02
  1 46 130 3.87985962E+02
  1 46 205 3.91721802E+02
  1 47 35 3.80329285E+02
  1 47 55 3.82734467E+02
  1 47 56 3.82433044E+02
  1 47 57 3.82241547E+02
  1 47 109 3.86807770E+02
  1 47 112 3.86882263E+02
  1 47 113 3.86907867E+02
  1 47 114 3.87127411E+02
  1 47 123 3.87881378E+02
  1 47 124 3.87856415E+02
  1 47 125 3.87919128E+02
  1 47 128 3.87933685E+02
  1 47 129 3.87855194E+02
  1 47 205 3.91797882E+02
  1 47 206 3.92037354E+02
  1 48 35 3.79496552E+02
  1 48 57 3.82681305E+02
  1 48 58 3.82710327E+02
  1 48 62 3.82962372E+02
  1 48 63 3.82855255E+02
  1 48 64 3.82789978E+02
  1 48 65 3.82825043E+02
  1 48 66 3.83377350E+02
  1 48 67 3.83987030E+02
  1 48 70 3.84915863E+02
  1 48 109 3.86768890E+02
  1 48 114 3.86924377E+02
  1 48 115 3.87203278E+02
  1 48 116 3.87460968E+02
  1 48 117 3.87589386E+02
  1 48 118 3.87798828E+02
  1 48 119 3.87949738E+02
  1 48 120 3.87880005E+02
  1 48 121 3.87870361E+02
  1 48 122 3.87802521E+02
  1 48 123 3.87804047E+02
  1 48 206 3.92085999E+02
  1 49 35 3.78832397E+02
  1 49 58 3.82584198E+02
  1 49 59 3.82784332E+02
  1 49 60 3.83053894E+02
  1 49 61 3.83372223E+02
  1 49 62 3.83510162E+02
  1 49 67 3.84275665E+02
  1 49 68 3.84829041E+02
  1 49 69 3.85278870E+02
  1 49 70 3.85382568E+02
  1 49 109 3.86727631E+02
  1 49 206 3.92186249E+02
  1 50 34 3.78528900E+02
  1 50 35 3.78288116E+02
  1 50 70 3.85730469E+02
  1 50 109 3.86700989E+02
  1 50 206 3.92313232E+02
  1 50 207 3.92464050E+02
  1 51 33 3.78449402E+02
  1 51 34 3.78064178E+02
  1 51 70 3.85888763E+02
  1 51 91 3.87070770E+02
  1 51 92 3.87208130E+02
  1 51 106 3.86908478E+02
  1 51 107 3.86828156E+02
  1 51 108 3.86766998E+02
  1 51 109 3.86703094E+02
  1 51 207 3.92556915E+02
  1 52 33 3.78083344E+02
  1 52 70 3.86145020E+02
  1 52 90 3.87347870E+02
  1 52 91 3.87487976E+02
  1 52 92 3.87636932E+02
  1 52 106 3.87074097E+02
  1 52 207 3.92670837E+02
  1 53 33 3.77692047E+02
  1 53 70 3.86318115E+02
  1 53 71 3.86588104E+02
  1 53 72 3.86574402E+02
  1 53 73 3.86441803E+02
  1 53 76 3.86420929E+02
  1 53 77 3.86488800E+02
  1 53 78 3.86560028E+02
  1 53 79 3.86576965E+02
  1 53 89 3.87093018E+02
  1 53 90 3.87278931E+02
  1 53 92 3.87716980E+02
  1 53 106 3.87206909E+02
  1 53 207 3.92793762E+02
  1 54 33 3.77087067E+02
  1 54 73 3.86542358E+02
  1 54 75 3.86533752E+02
  1 54 76 3.86570587E+02
  1 54 79 3.86674530E+02
  1 54 86 3.86418060E+02
  1 54 87 3.86519531E+02
  1 54 88 3.86632355E+02
  1 54 89 3.86791382E+02
  1 54 92 3.87452911E+02
  1 54 93 3.87945984E+02
  1 54 97 3.87940704E+02
  1 54 98 3.87933868E+02
  1 54 99 3.87951172E+02
  1 54 100 3.87987213E+02
  1 54 101 3.87948334E+02
  1 54 106 3.87364655E+02
  1 54 207 3.92946686E+02
  1 54 208 3.92953796E+02
  1 55 33 3.76279358E+02
  1 55 73 3.86309265E+02
  1 55 75 3.86450897E+02
  1 55 79 3.86596222E+02
  1 55 80 3.86458862E+02
  1 55 84 3.85866577E+02
  1 55 85 3.85786102E+02
  1 55 86 3.85975647E+02
  1 55 93 3.87656647E+02
  1 55 94 3.87702362E+02
  1 55 97 3.87819031E+02
  1 55 101 3.88001709E+02
  1 55 105 3.87640991E+02
  1 55 106 3.87486115E+02
  1 55 208 3.93136017E+02
  1 56 32 3.75525360E+02
  1 56 33 3.75485107E+02
  1 56 73 3.85920868E+02
  1 56 75 3.86167023E+02
  1 56 80 3.86253113E+02
  1 56 84 3.85395752E+02
  1 56 94 3.87501617E+02
  1 56 95 3.87634003E+02
  1 56 96 3.87713287E+02
  1 56 97 3.87748566E+02
  1 56 101 3.87985931E+02
  1 56 102 3.87960266E+02
  1 56 105 3.87604736E+02
  1 56 208 3.93342957E+02
  1 57 31 3.73825623E+02
  1 57 32 3.74248444E+02
  1 57 73 3.85458374E+02
  1 57 74 3.85563263E+02
  1 57 75 3.85732391E+02
  1 57 76 3.86032288E+02
  1 57 80 3.86003632E+02
  1 57 81 3.85667908E+02
  1 57 82 3.85394348E+02
  1 57 83 3.85186920E+02
  1 57 84 3.85034302E+02
  1 57 95 3.87472473E+02
  1 57 96 3.87621185E+02
  1 57 101 3.87901733E+02
  1 57 102 3.87870941E+02
  1 57 103 3.87777710E+02
  1 57 104 3.87702942E+02
  1 57 105 3.87535156E+02
  1 57 208 3.93577911E+02
  1 57 209 3.93523254E+02
  1 58 209 3.93673004E+02
  1 59 209 3.93752594E+02
  1 60 209 3.93787811E+02
  1 61 209 3.93862457E+02
  1 61 210 3.93801147E+02
  1 62 6 3.86632965E+02
  1 62 7 3.86587891E+02
  1 62 210 3.93918365E+02
  1 63 4 3.86666931E+02
  1 63 5 3.86618988E+02
  1 63 6 3.86618744E+02
  1 63 7 3.86601440E+02
  1 63 8 3.86562500E+02
  1 63 12 3.86176514E+02
  1 63 13 3.85910156E+02
  1 63 14 3.85631256E+02
  1 63 15 3.85554352E+02
  1 63 16 3.85245758E+02
  1 63 17 3.84690430E+02
  1 63 210 3.94090454E+02
  1 64 4 3.86798676E+02
  1 64 8 3.86635742E+02
  1 64 9 3.86597839E+02
  1 64 10 3.86496979E+02
  1 64 11 3.86382263E+02
  1 64 12 3.86224915E+02
  1 64 17 3.84734070E+02
  1 64 210 3.94305756E+02
  1 65 4 3.87121918E+02
  1 65 5 3.87036713E+02
  1 65 17 3.84849152E+02
  1 65 18 3.84357513E+02
  1 65 19 3.83777435E+02
  1 65 210 3.94208374E+02
  1 66 4 3.87128021E+02
  1 66 5 3.86966034E+02
  1 66 19 3.83722046E+02
  1 66 20 3.83057312E+02
  1 66 21 3.82197144E+02
  1 66 22 3.81277069E+02
  1 66 210 3.93942535E+02
  1 66 211 3.93918030E+02
  1 67 3 3.87161102E+02
  1 67 4 3.87078033E+02
  1 67 22 3.81173859E+02
  1 67 23 3.80010315E+02
  1 67 24 3.78606598E+02
  1 67 25 3.76977936E+02
  1 67 26 3.75181793E+02
  1 67 27 3.73227234E+02
  1 67 29 3.72578552E+02
  1 67 211 3.93704041E+02
  1 68 2 3.87268463E+02
  1 68 3 3.87243896E+02
  1 68 211 3.93509888E+02
  1 68 212 3.93574707E+02
  1 69 2 3.87329651E+02
  1 69 212 3.93394073E+02
  1 70 2 3.87445404E+02
  1 70 212 3.93254333E+02
  1 71 2 3.87686615E+02
  1 71 212 3.93178650E+02
  1 72 2 3.87929291E+02
  1 72 212 3.93097015E+02
  1 72 213 3.93223633E+02
  1 73 2 3.87998901E+02
  1 73 213 3.93119812E+02
  1 74 2 3.87932831E+02
  1 74 213 3.92988312E+02
  1 75 2 3.87960541E+02
  1 75 3 3.87887238E+02
  1 75 213 3.92895172E+02
  1 76 3 3.88003082E+02
  1 76 4 3.87880035E+02
  1 76 5 3.87733459E+02
  1 76 213 3.92847839E+02
  1 76 214 3.92946442E+02
  1 77 5 3.87934601E+02
  1 77 6 3.87725861E+02
  1 77 214 3.92952789E+02
  1 78 6 3.87905670E+02
  1 78 214 3.93068665E+02
  1 79 5 3.87992279E+02
  1 79 6 3.87898773E+02
  1 79 214 3.93218872E+02
  1 80 4 3.87780548E+02
  1 80 5 3.87759766E+02
  1 80 214 3.93381866E+02
  1 81 4 3.87540649E+02
  1 81 214 3.93505371E+02
  1 82 2 3.87909424E+02
  1 82 3 3.87622711E+02
  1 82 4 3.87397308E+02
  1 82 214 3.93535278E+02
  1 83 1 3.88097961E+02
  1 83 2 3.87908783E+02
  1 83 214 3.93503571E+02
  1 84 1 3.88063690E+02
  1 84 214 3.93449463E+02
  1 85 1 3.87955750E+02
  1 85 214 3.93444427E+02
  1 85 215 3.93532654E+02
  1 86 1 3.87836548E+02
  1 86 2 3.87676483E+02
  1 86 215 3.93545380E+02
  1 87 2 3.87684296E+02
  1 87 215 3.93572540E+02
  1 88 2 3.87818604E+02
  1 88 215 3.93609619E+02
  1 89 2 3.87982544E+02
  1 89 215 3.93669098E+02
  1 89 216 3.93698547E+02
  1 90 2 3.87945526E+02
  1 90 216 3.93740509E+02
  1 91 2 3.87775574E+02
  1 91 216 3.93791351E+02
  1 92 2 3.87665527E+02
  1 92 216 3.93843262E+02
  1 93 2 3.87626770E+02
  1 93 216 3.93925201E+02
  1 94 2 3.87628876E+02
  1 94 3 3.87356476E+02
  1 94 216 3.94016541E+02
  1 95 3 3.87655670E+02
  1 95 4 3.87504150E+02
  1 95 216 3.94106354E+02
  1 96 4 3.87702179E+02
  1 96 5 3.87393951E+02
  1 96 216 3.94180573E+02
  1 97 5 3.87271179E+02
  1 97 6 3.87183319E+02
  1 97 216 3.94258209E+02
  1 97 217 3.94168335E+02
  1 98 6 3.87541656E+02
  1 98 217 3.94311157E+02
  1 99 6 3.87924683E+02
  1 99 7 3.88110168E+02
  1 99 217 3.94507324E+02
  1 100 7 3.88269348E+02
  1 100 217 3.94746094E+02
  1 100 218 3.94667542E+02
  1 101 7 3.88218933E+02
  1 101 218 3.94946686E+02
  1 102 7 3.88065399E+02
  1 102 8 3.88076996E+02
  1 102 218 3.95228394E+02
  1 103 8 3.87812805E+02
  1 103 218 3.95488861E+02
  1 104 8 3.87547211E+02
  1 104 9 3.87571960E+02
  1 104 10 3.87612701E+02
  1 104 218 3.95716003E+02
  1 105 10 3.87598816E+02
  1 105 218 3.95848907E+02
  1 106 10 3.87653351E+02
  1 106 218 3.95802338E+02
  1 106 219 3.95677277E+02
  1 107 10 3.87866638E+02
  1 107 11 3.87903656E+02
  1 107 12 3.87873260E+02
  1 107 13 3.87889343E+02
  1 107 219 3.95475098E+02
  1 108 13 3.88102051E+02
  1 108 219 3.95159698E+02
  1 109 13 3.88402130E+02
  1 109 14 3.88372437E+02
  1 109 219 3.94825134E+02
  1 109 220 3.94774902E+02
  1 110 13 3.88586548E+02
  1 110 14 3.88578339E+02
  1 110 220 3.94467133E+02
  1 110 221 3.94574402E+02
  1 111 13 3.88495941E+02
  1 111 221 3.94316193E+02
  1 112 13 3.88453033E+02
  1 112 221 3.94104889E+02
  1 113 13 3.88529999E+02
  1 113 221 3.93942719E+02
  1 113 222 3.94152313E+02
  1 114 13 3.88668335E+02
  1 114 222 3.93987671E+02
  1 114 223 3.94176605E+02
  1 115 13 3.88681763E+02
  1 115 14 3.89130157E+02
  1 115 223 3.94060791E+02
  1 116 14 3.89149841E+02
  1 116 223 3.93968445E+02
  1 116 224 3.94073090E+02
  1 117 14 3.89017548E+02
  1 117 224 3.93970612E+02
  1 118 14 3.88791504E+02
  1 118 224 3.93823486E+02
  1 118 225 3.93794159E+02
  1 119 14 3.88452454E+02
  1 119 225 3.93632294E+02
  1 120 14 3.88226349E+02
  1 120 225 3.93551208E+02
  1 120 226 3.93464386E+02
  1 121 14 3.88105286E+02
  1 121 15 3.88597839E+02
  1 121 226 3.93415985E+02
  1 121 227 3.93321869E+02
  1 122 14 3.88084991E+02
  1 122 15 3.88411835E+02
  1 122 227 3.93341736E+02
  1 123 13 3.88201416E+02
  1 123 14 3.88216827E+02
  1 123 227 3.93491394E+02
  1 123 228 3.93374908E+02
  1 124 13 3.88557068E+02
  1 124 228 3.93555817E+02
  1 125 12 3.88740448E+02
  1 125 13 3.88892761E+02
  1 125 228 3.93721588E+02
  1 125 229 3.93511047E+02
  1 126 11 3.88790161E+02
  1 126 12 3.88878693E+02
  1 126 229 3.93672028E+02
  1 127 11 3.88857880E+02
  1 127 229 3.93814209E+02
  1 127 230 3.93630096E+02
  1 128 10 3.88992950E+02
  1 128 11 3.88905121E+02
  1 128 230 3.93772308E+02
  1 129 10 3.89121216E+02
  1 129 230 3.93923523E+02
  1 129 231 3.93755737E+02
  1 130 10 3.89271545E+02
  1 130 231 3.93848572E+02
  1 130 232 3.93647491E+02
  1 131 10 3.89475067E+02
  1 131 11 3.89357941E+02
  1 131 232 3.93700317E+02
  1 132 11 3.89621124E+02
  1 132 232 3.93612091E+02
  1 132 233 3.93503845E+02
  1 133 11 3.89867859E+02
  1 133 233 3.93473755E+02
  1 133 234 3.93460358E+02
  1 134 11 3.90064850E+02
  1 134 12 3.90041229E+02
  1 134 234 3.93409271E+02
  1 135 11 3.90202576E+02
  1 135 12 3.90240631E+02
  1 135 234 3.93337555E+02
  1 135 235 3.93435516E+02
  1 136 10 3.90129150E+02
  1 136 11 3.90254059E+02
  1 136 235 3.93423615E+02
  1 137 10 3.90227386E+02
  1 137 235 3.93416626E+02
  1 137 236 3.93574402E+02
  1 138 8 3.90468689E+02
  1 138 9 3.90472260E+02
  1 138 10 3.90424164E+02
  1 138 236 3.93561432E+02
  1 139 8 3.90753418E+02
  1 139 236 3.93515350E+02
  1 139 237 3.93663208E+02
  1 140 8 3.90920044E+02
  1 140 237 3.93582367E+02
  1 140 238 3.93724518E+02
  1 141 8 3.90961578E+02
  1 141 238 3.93605103E+02
  1 142 8 3.91013123E+02
  1 142 238 3.93450317E+02
  1 142 239 3.93715820E+02
  1 143 8 3.91104767E+02
  1 143 239 3.93634705E+02
  1 144 8 3.91236938E+02
  1 144 9 3.91321991E+02
  1 144 10 3.91402588E+02
  1 144 239 3.93572235E+02
  1 144 240 3.93878723E+02
  1 145 10 3.91551392E+02
  1 145 240 3.93834015E+02
  1 146 10 3.91794281E+02
  1 146 240 3.93757935E+02
  1 146 241 3.94099640E+02
  1 147 10 3.92120972E+02
  1 147 241 3.94005798E+02
  1 148 10 3.92405182E+02
  1 148 11 3.92445496E+02
  1 148 12 3.92380096E+02
  1 148 13 3.92280457E+02
  1 148 14 3.92298798E+02
  1 148 15 3.92202362E+02
  1 148 16 3.92145508E+02
  1 148 21 3.91444885E+02
  1 148 22 3.91605469E+02
  1 148 241 3.93895172E+02
  1 148 242 3.94246857E+02
  1 149 11 3.92563995E+02
  1 149 12 3.92524445E+02
  1 149 16 3.92293396E+02
  1 149 17 3.92157227E+02
  1 149 21 3.91533234E+02
  1 149 22 3.91703705E+02
  1 149 242 3.94130859E+02
  1 149 243 3.94463562E+02
  1 150 11 3.92657440E+02
  1 150 17 3.92264648E+02
  1 150 19 3.91889435E+02
  1 150 20 3.91712921E+02
  1 150 21 3.91664398E+02
  1 150 22 3.91783386E+02
  1 150 243 3.94373230E+02
  1 151 17 3.92438019E+02
  1 151 18 3.92199585E+02
  1 151 19 3.92041077E+02
  1 151 22 3.91903412E+02
  1 151 23 3.91924774E+02
  1 151 24 3.91795715E+02
  1 151 25 3.91688507E+02
  1 151 26 3.91551056E+02
  1 151 243 3.94303925E+02
  1 151 244 3.94637695E+02
  1 152 26 3.91690765E+02
  1 152 244 3.94555267E+02
  1 153 26 3.91865265E+02
  1 153 244 3.94429108E+02
  1 153 245 3.94668854E+02
  1 154 26 3.92094971E+02
  1 154 27 3.91905365E+02
  1 154 28 3.91808289E+02
  1 154 30 3.91565582E+02
  1 154 31 3.91443848E+02
  1 154 245 3.94567841E+02
  1 155 28 3.92013306E+02
  1 155 29 3.91874329E+02
  1 155 30 3.91750366E+02
  1 155 31 3.91662292E+02
  1 155 245 3.94508423E+02
  1 155 246 3.94791565E+02
  1 156 31 3.91847778E+02
  1 156 32 3.91833496E+02
  1 156 246 3.94721741E+02
  1 156 247 3.94936768E+02
  1 157 32 3.91935944E+02
  1 157 33 3.91964172E+02
  1 157 247 3.94827667E+02
  1 158 33 3.92022919E+02
  1 158 247 3.94734161E+02
  1 159 33 3.92068146E+02
  1 159 247 3.94626740E+02
  1 160 33 3.91974274E+02
  1 160 34 3.91944122E+02
  1 160 247 3.94506958E+02
  1 161 34 3.91941864E+02
  1 161 247 3.94397217E+02
  1 161 248 3.94494019E+02
  1 162 34 3.92020752E+02
  1 162 35 3.91911743E+02
  1 162 248 3.94449310E+02
  1 163 32 3.92666901E+02
  1 163 33 3.92545593E+02
  1 163 34 3.92257233E+02
  1 163 35 3.92198669E+02
  1 163 248 3.94480927E+02
  1 163 249 3.94761383E+02
  1 164 32 3.93047913E+02
  1 164 45 3.91567322E+02
  1 164 46 3.91715363E+02
  1 164 47 3.91812439E+02
  1 164 48 3.91859680E+02
  1 164 49 3.91848358E+02
  1 164 50 3.91765442E+02
  1 164 249 3.94790222E+02
  1 165 32 3.93086426E+02
  1 165 39 3.92647552E+02
  1 165 40 3.92530914E+02
  1 165 44 3.91626678E+02
  1 165 45 3.91776428E+02
  1 165 50 3.91813049E+02
  1 165 249 3.94854401E+02
  1 166 32 3.92794922E+02
  1 166 33 3.92619812E+02
  1 166 34 3.92540527E+02
  1 166 35 3.92467133E+02
  1 166 36 3.92418091E+02
  1 166 37 3.92510651E+02
  1 166 38 3.92626312E+02
  1 166 39 3.92612122E+02
  1 166 40 3.92467194E+02
  1 166 41 3.92128723E+02
  1 166 42 3.91983063E+02
  1 166 43 3.91958466E+02
  1 166 44 3.91852234E+02
  1 166 50 3.91845551E+02
  1 166 51 3.91773041E+02
  1 166 52 3.91785522E+02
  1 166 249 3.94929749E+02
  1 167 52 3.91767120E+02
  1 167 249 3.94999817E+02
  1 168 52 3.91844940E+02
  1 168 249 3.95082886E+02
  1 169 52 3.91955414E+02
  1 169 53 3.91728699E+02
  1 169 55 3.91175659E+02
  1 169 56 3.90911530E+02
  1 169 57 3.90631805E+02
  1 169 249 3.95161102E+02
  1 170 53 3.92001984E+02
  1 170 55 3.91291321E+02
  1 170 57 3.90654510E+02
  1 170 58 3.90348450E+02
  1 170 249 3.95244629E+02
  1 170 250 3.96071686E+02
  1 171 53 3.92398193E+02
  1 171 54 3.92006256E+02
  1 171 55 3.91540009E+02
  1 171 58 3.90453430E+02
  1 171 59 3.90146698E+02
  1 171 250 3.96162659E+02
  1 172 59 3.90215332E+02
  1 172 250 3.96241150E+02
  1 173 59 3.90378632E+02
  1 173 60 3.90068054E+02
  1 173 250 3.96345551E+02
  1 174 60 3.90292206E+02
  1 174 250 3.96445618E+02
  1 175 59 3.90579651E+02
  1 175 60 3.90323029E+02
  1 175 250 3.96562561E+02
  1 176 59 3.90712097E+02
  1 176 250 3.96686615E+02
  1 177 59 3.90853149E+02
  1 177 250 3.96789093E+02
  1 178 59 3.90911102E+02
  1 178 60 3.90793610E+02
  1 178 61 3.90741333E+02
  1 178 62 3.90757812E+02
  1 178 250 3.96891144E+02
  1 179 62 3.90992920E+02
  1 179 63 3.91068573E+02
  1 179 250 3.96997162E+02
  1 180 63 3.91323700E+02
  1 180 250 3.97106140E+02
  1 181 63 3.91556793E+02
  1 181 250 3.97212585E+02
  1 182 63 3.91862457E+02
  1 182 250 3.97325928E+02
  1 183 63 3.92155762E+02
  1 183 250 3.97435516E+02
  1 184 63 3.92370544E+02
  1 184 250 3.97551910E+02
  1 185 63 3.92276886E+02
  1 185 250 3.97716278E+02
  1 186 63 3.92695099E+02
  1 186 250 3.97895325E+02
  1 187 63 3.92573730E+02
  1 187 250 3.97857391E+02
  1 188 63 3.92599335E+02
  1 188 64 3.92633331E+02
  1 188 250 3.97855927E+02
  1 189 64 3.92872894E+02
  1 189 65 3.92925262E+02
  1 189 250 3.97920593E+02
  1 190 65 3.93167267E+02
  1 190 250 3.97960968E+02
  1 191 64 3.93543945E+02
  1 191 65 3.93515106E+02
  1 191 250 3.98018402E+02
  1 192 64 3.93824829E+02
  1 192 250 3.98081604E+02
  1 193 64 3.93926575E+02
  1 193 250 3.98133972E+02
  1 194 64 3.93953217E+02
  1 194 65 3.93983765E+02
  1 194 250 3.98168457E+02
  1 195 65 3.93981934E+02
  1 195 250 3.98199951E+02
  1 196 65 3.94025269E+02
  1 196 68 3.93689148E+02
  1 196 69 3.93465332E+02
  1 196 70 3.93200073E+02
  1 196 71 3.92930298E+02
  1 196 72 3.92654907E+02
  1 196 250 3.98234924E+02
  1 197 65 3.93948456E+02
  1 197 66 3.94009033E+02
  1 197 67 3.94013550E+02
  1 197 68 3.93908905E+02
  1 197 72 3.92826569E+02
  1 197 250 3.98289795E+02
  1 198 72 3.92990387E+02
  1 198 250 3.98321167E+02
  1 199 72 3.93093353E+02
  1 199 73 3.92906494E+02
  1 199 249 3.97392120E+02
  1 199 250 3.98348419E+02
  1 200 73 3.92888123E+02
  1 200 197 3.95934326E+02
  1 200 198 3.96009857E+02
  1 200 199 3.96072266E+02
  1 200 200 3.96135742E+02
  1 200 201 3.96292236E+02
  1 200 249 3.97323273E+02
  1 201 73 3.92945648E+02
  1 201 74 3.92458984E+02
  1 201 189 3.96320801E+02
  1 201 190 3.96158386E+02
  1 201 191 3.96028351E+02
  1 201 192 3.95900665E+02
  1 201 193 3.95777405E+02
  1 201 194 3.95678864E+02
  1 201 195 3.95759735E+02
  1 201 196 3.95925934E+02
  1 201 197 3.95961700E+02
  1 201 201 3.96520416E+02
  1 201 202 3.96726318E+02
  1 201 203 3.96973480E+02
  1 201 204 3.97162354E+02
  1 201 249 3.97288055E+02
  1 202 74 3.92894897E+02
  1 202 185 3.96933136E+02
  1 202 186 3.96907043E+02
  1 202 187 3.96817200E+02
  1 202 188 3.96680939E+02
  1 202 189 3.96538757E+02
  1 202 204 3.97353790E+02
  1 202 205 3.97451782E+02
  1 202 206 3.97483887E+02
  1 202 207 3.97529083E+02
  1 202 248 3.97138947E+02
  1 202 249 3.97285156E+02
  1 203 74 3.93311035E+02
  1 203 75 3.93228821E+02
  1 203 181 3.96721710E+02
  1 203 182 3.96766754E+02
  1 203 183 3.96900421E+02
  1 203 184 3.96976074E+02
  1 203 185 3.97004517E+02
  1 203 207 3.97389496E+02
  1 203 208 3.97596405E+02
  1 203 209 3.97823730E+02
  1 203 248 3.97206909E+02
  1 204 75 3.93661591E+02
  1 204 179 3.96635956E+02
  1 204 180 3.96606415E+02
  1 204 181 3.96593231E+02
  1 204 209 3.97643738E+02
  1 204 210 3.97800781E+02
  1 204 211 3.97889160E+02
  1 204 212 3.97930878E+02
  1 204 213 3.98012238E+02
  1 204 247 3.97430878E+02
  1 204 248 3.97340240E+02
  1 205 75 3.94090454E+02
  1 205 178 3.96573059E+02
  1 205 179 3.96500305E+02
  1 205 213 3.97946564E+02
  1 205 214 3.98031372E+02
  1 205 215 3.98138733E+02
  1 205 247 3.97680267E+02
  1 206 75 3.94418396E+02
  1 206 76 3.94214142E+02
  1 206 178 3.96444519E+02
  1 206 215 3.98069885E+02
  1 206 216 3.98143066E+02
  1 206 217 3.98074005E+02
  1 206 245 3.98617554E+02
  1 206 246 3.98261902E+02
  1 206 247 3.98055206E+02
  1 207 76 3.94444183E+02
  1 207 176 3.96737366E+02
  1 207 177 3.96549194E+02
  1 207 178 3.96364014E+02
  1 207 217 3.98149017E+02
  1 207 218 3.98217041E+02
  1 207 219 3.98320343E+02
  1 207 220 3.98379761E+02
  1 207 221 3.98366333E+02
  1 207 236 3.97892212E+02
  1 207 237 3.98064331E+02
  1 207 238 3.98320709E+02
  1 207 239 3.98515778E+02
  1 207 240 3.98571869E+02
  1 207 241 3.98632355E+02
  1 207 242 3.98799683E+02
  1 207 243 3.99015076E+02
  1 207 244 3.99109558E+02
  1 207 245 3.98995880E+02
  1 208 75 3.94597473E+02
  1 208 76 3.94572174E+02
  1 208 176 3.96751556E+02
  1 208 221 3.98538147E+02
  1 208 222 3.98454681E+02
  1 208 223 3.98294006E+02
  1 208 224 3.98179993E+02
  1 208 225 3.98088165E+02
  1 208 226 3.98085968E+02
  1 208 227 3.98027618E+02
  1 208 228 3.97924927E+02
  1 208 229 3.97752136E+02
  1 208 230 3.97548553E+02
  1 208 231 3.97424866E+02
  1 208 232 3.97526031E+02
  1 208 233 3.97582489E+02
  1 208 234 3.97699768E+02
  1 208 235 3.97809021E+02
  1 208 236 3.97910065E+02
  1 209 75 3.94491547E+02
  1 209 175 3.96922485E+02
  1 209 176 3.96788422E+02
  1 210 74 3.94553925E+02
  1 210 75 3.94352722E+02
  1 210 174 3.97073792E+02
  1 210 175 3.96965363E+02
  1 211 74 3.94719666E+02
  1 211 75 3.94499237E+02
  1 211 174 3.97193298E+02
  1 212 75 3.94724060E+02
  1 212 174 3.97305817E+02
  1 213 75 3.94827271E+02
  1 213 173 3.97305176E+02
  1 213 174 3.97283691E+02
  1 214 75 3.94866302E+02
  1 214 172 3.97279144E+02
  1 214 173 3.97228394E+02
  1 215 75 3.94919312E+02
  1 215 172 3.97326691E+02
  1 216 74 3.95006256E+02
  1 216 75 3.95109161E+02
  1 216 172 3.97313629E+02
  1 217 73 3.95229095E+02
  1 217 74 3.95329651E+02
  1 217 171 3.97086609E+02
  1 217 172 3.97142487E+02
  1 218 73 3.95309174E+02
  1 218 171 3.96820007E+02
  1 219 73 3.95319427E+02
  1 219 74 3.95612274E+02
  1 219 75 3.95729584E+02
  1 219 170 3.96606934E+02
  1 219 171 3.96652771E+02
  1 220 75 3.95890625E+02
  1 220 170 3.96531006E+02
  1 221 75 3.96024506E+02
  1 221 170 3.96534058E+02
  1 222 75 3.96149902E+02
  1 222 170 3.96540344E+02
  1 223 75 3.96424347E+02
  1 223 76 3.96434174E+02
  1 223 77 3.96274658E+02
  1 223 170 3.96498077E+02
  1 224 77 3.96800964E+02
  1 224 78 3.96620483E+02
  1 224 170 3.96437286E+02
  1 225 78 3.97234985E+02
  1 225 170 3.96309937E+02
  1 226 77 3.97566986E+02
  1 226 78 3.97693787E+02
  1 226 169 3.96131958E+02
  1 226 170 3.96188721E+02
  1 227 76 3.97099762E+02
  1 227 77 3.97423431E+02
  1 227 169 3.95990326E+02
  1 228 75 3.96701935E+02
  1 228 76 3.96952301E+02
  1 228 99 3.95864075E+02
  1 228 100 3.95914948E+02
  1 228 101 3.95961761E+02
  1 228 102 3.96024750E+02
  1 228 103 3.96170990E+02
  1 228 169 3.95963409E+02
  1 229 75 3.96830414E+02
  1 229 76 3.97015503E+02
  1 229 98 3.95816071E+02
  1 229 99 3.95815094E+02
  1 229 103 3.96128326E+02
  1 229 104 3.96303589E+02
  1 229 169 3.95966431E+02
  1 230 76 3.97106262E+02
  1 230 77 3.97276550E+02
  1 230 78 3.97510864E+02
  1 230 79 3.97649048E+02
  1 230 98 3.95817749E+02
  1 230 104 3.95914337E+02
  1 230 168 3.95737427E+02
  1 230 169 3.95885193E+02
  1 231 79 3.97728638E+02
  1 231 97 3.96013184E+02
  1 231 98 3.95974701E+02
  1 231 104 3.95683289E+02
  1 231 168 3.95557648E+02
  1 232 79 3.97537933E+02
  1 232 80 3.97685333E+02
  1 232 81 3.97824768E+02
  1 232 96 3.96203033E+02
  1 232 97 3.96209015E+02
  1 232 104 3.95746368E+02
  1 232 105 3.95920074E+02
  1 232 168 3.95364685E+02
  1 233 81 3.97777496E+02
  1 233 82 3.97851013E+02
  1 233 96 3.96311920E+02
  1 233 104 3.95952179E+02
  1 233 105 3.96074432E+02
  1 233 168 3.95219727E+02
  1 234 82 3.97705048E+02
  1 234 83 3.97602875E+02
  1 234 95 3.96515656E+02
  1 234 96 3.96402100E+02
  1 234 104 3.96180328E+02
  1 234 105 3.96264313E+02
  1 234 168 3.95159637E+02
  1 235 83 3.97393799E+02
  1 235 84 3.97332977E+02
  1 235 85 3.97345673E+02
  1 235 86 3.97361847E+02
  1 235 93 3.97095123E+02
  1 235 94 3.96804565E+02
  1 235 95 3.96690460E+02
  1 235 105 3.96438751E+02
  1 235 167 3.95085663E+02
  1 235 168 3.95191925E+02
  1 236 86 3.97264923E+02
  1 236 87 3.97186401E+02
  1 236 88 3.97152252E+02
  1 236 93 3.97299255E+02
  1 236 105 3.96493988E+02
  1 236 106 3.96563446E+02
  1 236 167 3.95106628E+02
  1 237 88 3.96948669E+02
  1 237 92 3.97554108E+02
  1 237 93 3.97444305E+02
  1 237 106 3.96628876E+02
  1 237 107 3.96693848E+02
  1 237 108 3.96688324E+02