# File generated by Flopy version 3.8.2 on 12/12/2024 at 09:58:32.
BEGIN options
END options

BEGIN dimensions
  MAXBOUND  10000
END dimensions

BEGIN period  1
  1 2 75     398.01461792       0.00100000       0.30000000
  1 2 76     398.12542725       0.00100000       0.30000000
  1 2 77     399.03387451       0.00100000       0.30000000
  1 2 78     399.79821777       0.00100000       0.30000000
  1 2 79     400.51950073       0.00100000       0.30000000
  1 2 80     401.19973755       0.00100000       0.30000000
  1 3 70     400.14431763       0.00100000       0.30000000
  1 3 71     400.55361938       0.00100000       0.30000000
  1 3 72     401.44711304       0.00100000       0.30000000
  1 3 73     401.69384766       0.00100000       0.30000000
  1 3 74     400.50009155       0.00100000       0.30000000
  1 3 75     398.47918701       0.00100000       0.30000000
  1 3 76     397.72531128       0.00100000       0.30000000
  1 3 77     398.58288574       0.00100000       0.30000000
  1 3 78     399.30249023       0.00100000       0.30000000
  1 3 79     399.98800659       0.00100000       0.30000000
  1 3 80     400.86587524       0.00100000       0.30000000
  1 3 81     401.17037964       0.00100000       0.30000000
  1 3 82     400.56469727       0.00100000       0.30000000
  1 3 83     400.18481445       0.00100000       0.30000000
  1 3 84     399.87588501       0.00100000       0.30000000
  1 3 85     399.81610107       0.00100000       0.30000000
  1 3 86     400.29501343       0.00100000       0.30000000
  1 3 87     400.86090088       0.00100000       0.30000000
  1 3 88     401.57766724       0.00100000       0.30000000
  1 3 89     402.23596191       0.00100000       0.30000000
  1 3 90     402.99154663       0.00100000       0.30000000
  1 3 91     403.24264526       0.00100000       0.30000000
  1 4 51     398.81399536       0.00100000       0.30000000
  1 4 52     398.21975708       0.00100000       0.30000000
  1 4 53     397.38446045       0.00100000       0.30000000
  1 4 54     396.33236694       0.00100000       0.30000000
  1 4 55     395.46902466       0.00100000       0.30000000
  1 4 56     395.27743530       0.00100000       0.30000000
  1 4 57     395.59280396       0.00100000       0.30000000
  1 4 58     395.78961182       0.00100000       0.30000000
  1 4 59     396.20779419       0.00100000       0.30000000
  1 4 60     396.98919678       0.00100000       0.30000000
  1 4 61     397.83367920       0.00100000       0.30000000
  1 4 62     398.61190796       0.00100000       0.30000000
  1 4 68     399.62612915       0.00100000       0.30000000
  1 4 69     399.11956787       0.00100000       0.30000000
  1 4 70     399.00854492       0.00100000       0.30000000
  1 4 71     399.68191528       0.00100000       0.30000000
  1 4 72     400.35455322       0.00100000       0.30000000
  1 4 73     400.04013062       0.00100000       0.30000000
  1 4 74     398.89999390       0.00100000       0.30000000
  1 4 75     397.60177612       0.00100000       0.30000000
  1 4 76     397.75634766       0.00100000       0.30000000
  1 4 77     398.75161743       0.00100000       0.30000000
  1 4 78     399.36447144       0.00100000       0.30000000
  1 4 79     399.92239380       0.00100000       0.30000000
  1 4 80     400.59436035       0.00100000       0.30000000
  1 4 81     401.32504272       0.00100000       0.30000000
  1 4 82     401.64187622       0.00100000       0.30000000
  1 4 83     401.34863281       0.00100000       0.30000000
  1 4 84     400.67437744       0.00100000       0.30000000
  1 4 85     400.32870483       0.00100000       0.30000000
  1 4 86     400.60440063       0.00100000       0.30000000
  1 4 87     401.00262451       0.00100000       0.30000000
  1 4 88     401.74954224       0.00100000       0.30000000
  1 4 89     402.34548950       0.00100000       0.30000000
  1 4 90     402.80487061       0.00100000       0.30000000
  1 4 91     402.94790649       0.00100000       0.30000000
  1 4 92     403.43331909       0.00100000       0.30000000
  1 5 39     396.05691528       0.00100000       0.30000000
  1 5 40     395.31652832       0.00100000       0.30000000
  1 5 41     394.67971802       0.00100000       0.30000000
  1 5 42     395.12301636       0.00100000       0.30000000
  1 5 43     396.09106445       0.00100000       0.30000000
  1 5 44     396.55889893       0.00100000       0.30000000
  1 5 47     399.28656006       0.00100000       0.30000000
  1 5 48     399.21755981       0.00100000       0.30000000
  1 5 49     398.48474121       0.00100000       0.30000000
  1 5 50     398.07479858       0.00100000       0.30000000
  1 5 51     397.59295654       0.00100000       0.30000000
  1 5 52     396.59545898       0.00100000       0.30000000
  1 5 53     396.18002319       0.00100000       0.30000000
  1 5 54     394.84896851       0.00100000       0.30000000
  1 5 55     394.38006592       0.00100000       0.30000000
  1 5 56     393.23641968       0.00100000       0.30000000
  1 5 57     392.63482666       0.00100000       0.30000000
  1 5 58     393.73339844       0.00100000       0.30000000
  1 5 59     395.38983154       0.00100000       0.30000000
  1 5 60     396.59539795       0.00100000       0.30000000
  1 5 61     397.84103394       0.00100000       0.30000000
  1 5 62     398.82107544       0.00100000       0.30000000
  1 5 63     399.14962769       0.00100000       0.30000000
  1 5 64     398.07543945       0.00100000       0.30000000
  1 5 65     397.68521118       0.00100000       0.30000000
  1 5 66     398.19393921       0.00100000       0.30000000
  1 5 67     398.71868896       0.00100000       0.30000000
  1 5 68     399.12612915       0.00100000       0.30000000
  1 5 69     398.23388672       0.00100000       0.30000000
  1 5 70     397.52914429       0.00100000       0.30000000
  1 5 71     398.64590454       0.00100000       0.30000000
  1 5 72     398.72692871       0.00100000       0.30000000
  1 5 73     398.47375488       0.00100000       0.30000000
  1 5 74     397.70352173       0.00100000       0.30000000
  1 5 75     396.38189697       0.00100000       0.30000000
  1 5 76     397.36120605       0.00100000       0.30000000
  1 5 77     398.42584229       0.00100000       0.30000000
  1 5 78     399.21127319       0.00100000       0.30000000
  1 5 79     400.19946289       0.00100000       0.30000000
  1 5 80     400.93698120       0.00100000       0.30000000
  1 5 81     401.71102905       0.00100000       0.30000000
  1 5 82     402.13949585       0.00100000       0.30000000
  1 5 83     401.32998657       0.00100000       0.30000000
  1 5 84     400.23721313       0.00100000       0.30000000
  1 5 85     399.18298340       0.00100000       0.30000000
  1 5 86     399.39276123       0.00100000       0.30000000
  1 5 87     400.40066528       0.00100000       0.30000000
  1 5 88     401.57351685       0.00100000       0.30000000
  1 5 89     402.37106323       0.00100000       0.30000000
  1 5 90     402.51400757       0.00100000       0.30000000
  1 5 91     402.21301270       0.00100000       0.30000000
  1 5 92     402.59350586       0.00100000       0.30000000
  1 5 93     403.02804565       0.00100000       0.30000000
  1 5 94     403.26516724       0.00100000       0.30000000
  1 6 39     394.68768311       0.00100000       0.30000000
  1 6 40     393.13729858       0.00100000       0.30000000
  1 6 41     393.79754639       0.00100000       0.30000000
  1 6 42     394.46731567       0.00100000       0.30000000
  1 6 43     395.71563721       0.00100000       0.30000000
  1 6 44     396.70452881       0.00100000       0.30000000
  1 6 45     397.27084351       0.00100000       0.30000000
  1 6 46     398.03054810       0.00100000       0.30000000
  1 6 47     398.58471680       0.00100000       0.30000000
  1 6 48     398.11862183       0.00100000       0.30000000
  1 6 49     396.83560181       0.00100000       0.30000000
  1 6 50     395.76239014       0.00100000       0.30000000
  1 6 51     395.35269165       0.00100000       0.30000000
  1 6 52     394.62615967       0.00100000       0.30000000
  1 6 53     395.29147339       0.00100000       0.30000000
  1 6 54     393.49969482       0.00100000       0.30000000
  1 6 55     392.11508179       0.00100000       0.30000000
  1 6 56     391.10485840       0.00100000       0.30000000
  1 6 57     391.82861328       0.00100000       0.30000000
  1 6 58     394.63018799       0.00100000       0.30000000
  1 6 59     397.16204834       0.00100000       0.30000000
  1 6 60     398.16036987       0.00100000       0.30000000
  1 6 61     398.32537842       0.00100000       0.30000000
  1 6 62     397.94192505       0.00100000       0.30000000
  1 6 63     397.27975464       0.00100000       0.30000000
  1 6 64     395.74368286       0.00100000       0.30000000
  1 6 65     396.75607300       0.00100000       0.30000000
  1 6 66     397.64212036       0.00100000       0.30000000
  1 6 67     398.57690430       0.00100000       0.30000000
  1 6 68     399.21200562       0.00100000       0.30000000
  1 6 69     398.67282104       0.00100000       0.30000000
  1 6 70     396.94064331       0.00100000       0.30000000
  1 6 71     396.58410645       0.00100000       0.30000000
  1 6 72     396.21060181       0.00100000       0.30000000
  1 6 73     396.15887451       0.00100000       0.30000000
  1 6 74     396.14639282       0.00100000       0.30000000
  1 6 75     395.44326782       0.00100000       0.30000000
  1 6 76     395.93313599       0.00100000       0.30000000
  1 6 77     397.21685791       0.00100000       0.30000000
  1 6 78     398.15820312       0.00100000       0.30000000
  1 6 79     399.04953003       0.00100000       0.30000000
  1 6 80     400.26565552       0.00100000       0.30000000
  1 6 81     401.30941772       0.00100000       0.30000000
  1 6 82     401.80834961       0.00100000       0.30000000
  1 6 83     401.19900513       0.00100000       0.30000000
  1 6 84     400.02676392       0.00100000       0.30000000
  1 6 85     398.71582031       0.00100000       0.30000000
  1 6 86     399.40225220       0.00100000       0.30000000
  1 6 87     400.24447632       0.00100000       0.30000000
  1 6 88     401.08880615       0.00100000       0.30000000
  1 6 89     401.62298584       0.00100000       0.30000000
  1 6 90     401.83273315       0.00100000       0.30000000
  1 6 91     401.57751465       0.00100000       0.30000000
  1 6 92     401.74020386       0.00100000       0.30000000
  1 6 93     402.15716553       0.00100000       0.30000000
  1 6 94     402.71722412       0.00100000       0.30000000
  1 6 95     402.78417969       0.00100000       0.30000000
  1 7 38     394.83169556       0.00100000       0.30000000
  1 7 39     392.94937134       0.00100000       0.30000000
  1 7 40     392.63500977       0.00100000       0.30000000
  1 7 41     394.91256714       0.00100000       0.30000000
  1 7 42     395.63479614       0.00100000       0.30000000
  1 7 43     395.57360840       0.00100000       0.30000000
  1 7 44     396.10354614       0.00100000       0.30000000
  1 7 45     396.91534424       0.00100000       0.30000000
  1 7 46     397.71661377       0.00100000       0.30000000
  1 7 47     397.58999634       0.00100000       0.30000000
  1 7 48     397.22756958       0.00100000       0.30000000
  1 7 49     396.36953735       0.00100000       0.30000000
  1 7 50     394.30538940       0.00100000       0.30000000
  1 7 51     392.70730591       0.00100000       0.30000000
  1 7 52     392.93103027       0.00100000       0.30000000
  1 7 53     394.50750732       0.00100000       0.30000000
  1 7 54     393.04962158       0.00100000       0.30000000
  1 7 55     390.08825684       0.00100000       0.30000000
  1 7 56     389.65164185       0.00100000       0.30000000
  1 7 57     392.87097168       0.00100000       0.30000000
  1 7 58     395.70300293       0.00100000       0.30000000
  1 7 59     396.54061890       0.00100000       0.30000000
  1 7 60     397.45333862       0.00100000       0.30000000
  1 7 61     397.41070557       0.00100000       0.30000000
  1 7 62     396.60098267       0.00100000       0.30000000
  1 7 63     394.91488647       0.00100000       0.30000000
  1 7 64     394.40283203       0.00100000       0.30000000
  1 7 65     396.07843018       0.00100000       0.30000000
  1 7 66     397.36709595       0.00100000       0.30000000
  1 7 67     398.41494751       0.00100000       0.30000000
  1 7 68     399.08599854       0.00100000       0.30000000
  1 7 69     398.95675659       0.00100000       0.30000000
  1 7 70     397.49374390       0.00100000       0.30000000
  1 7 71     395.74533081       0.00100000       0.30000000
  1 7 72     394.58102417       0.00100000       0.30000000
  1 7 73     394.30575562       0.00100000       0.30000000
  1 7 74     394.10977173       0.00100000       0.30000000
  1 7 75     394.67437744       0.00100000       0.30000000
  1 7 76     396.60226440       0.00100000       0.30000000
  1 7 77     397.90908813       0.00100000       0.30000000
  1 7 78     398.68737793       0.00100000       0.30000000
  1 7 79     399.39657593       0.00100000       0.30000000
  1 7 80     400.21343994       0.00100000       0.30000000
  1 7 81     400.49606323       0.00100000       0.30000000
  1 7 82     399.98052979       0.00100000       0.30000000
  1 7 83     399.61193848       0.00100000       0.30000000
  1 7 84     398.61972046       0.00100000       0.30000000
  1 7 85     397.94769287       0.00100000       0.30000000
  1 7 86     398.91104126       0.00100000       0.30000000
  1 7 87     400.07696533       0.00100000       0.30000000
  1 7 88     400.57421875       0.00100000       0.30000000
  1 7 89     400.53985596       0.00100000       0.30000000
  1 7 90     400.43405151       0.00100000       0.30000000
  1 7 91     400.69180298       0.00100000       0.30000000
  1 7 92     400.82113647       0.00100000       0.30000000
  1 7 93     401.91406250       0.00100000       0.30000000
  1 7 94     402.74459839       0.00100000       0.30000000
  1 7 95     402.82452393       0.00100000       0.30000000
  1 8 38     393.14547729       0.00100000       0.30000000
  1 8 39     391.00518799       0.00100000       0.30000000
  1 8 40     392.18197632       0.00100000       0.30000000
  1 8 41     394.13476562       0.00100000       0.30000000
  1 8 42     395.20333862       0.00100000       0.30000000
  1 8 43     395.48767090       0.00100000       0.30000000
  1 8 44     396.21191406       0.00100000       0.30000000
  1 8 45     397.01776123       0.00100000       0.30000000
  1 8 46     396.90725708       0.00100000       0.30000000
  1 8 47     396.10971069       0.00100000       0.30000000
  1 8 48     396.00695801       0.00100000       0.30000000
  1 8 49     396.66986084       0.00100000       0.30000000
  1 8 50     395.46929932       0.00100000       0.30000000
  1 8 51     392.66537476       0.00100000       0.30000000
  1 8 52     390.84899902       0.00100000       0.30000000
  1 8 53     391.29180908       0.00100000       0.30000000
  1 8 54     390.21258545       0.00100000       0.30000000
  1 8 55     388.22357178       0.00100000       0.30000000
  1 8 56     389.89083862       0.00100000       0.30000000
  1 8 57     393.23806763       0.00100000       0.30000000
  1 8 58     393.86285400       0.00100000       0.30000000
  1 8 59     393.58523560       0.00100000       0.30000000
  1 8 60     395.45321655       0.00100000       0.30000000
  1 8 61     395.21728516       0.00100000       0.30000000
  1 8 62     394.31240845       0.00100000       0.30000000
  1 8 63     392.90350342       0.00100000       0.30000000
  1 8 64     394.43658447       0.00100000       0.30000000
  1 8 65     396.86477661       0.00100000       0.30000000
  1 8 66     396.74343872       0.00100000       0.30000000
  1 8 67     397.21310425       0.00100000       0.30000000
  1 8 68     398.12097168       0.00100000       0.30000000
  1 8 69     398.00341797       0.00100000       0.30000000
  1 8 70     396.75949097       0.00100000       0.30000000
  1 8 71     395.56115723       0.00100000       0.30000000
  1 8 72     394.91390991       0.00100000       0.30000000
  1 8 73     393.07821655       0.00100000       0.30000000
  1 8 74     394.22216797       0.00100000       0.30000000
  1 8 75     396.40170288       0.00100000       0.30000000
  1 8 76     398.21594238       0.00100000       0.30000000
  1 8 77     398.93490601       0.00100000       0.30000000
  1 8 78     399.26278687       0.00100000       0.30000000
  1 8 79     399.36599731       0.00100000       0.30000000
  1 8 80     399.23632812       0.00100000       0.30000000
  1 8 81     399.56439209       0.00100000       0.30000000
  1 8 82     398.66497803       0.00100000       0.30000000
  1 8 83     397.49536133       0.00100000       0.30000000
  1 8 84     396.90969849       0.00100000       0.30000000
  1 8 85     397.81701660       0.00100000       0.30000000
  1 8 86     399.67266846       0.00100000       0.30000000
  1 8 87     400.51089478       0.00100000       0.30000000
  1 8 88     400.37371826       0.00100000       0.30000000
  1 8 89     400.13305664       0.00100000       0.30000000
  1 8 90     399.88262939       0.00100000       0.30000000
  1 8 91     399.97338867       0.00100000       0.30000000
  1 8 92     400.45434570       0.00100000       0.30000000
  1 8 93     401.40344238       0.00100000       0.30000000
  1 8 94     402.11407471       0.00100000       0.30000000
  1 8 95     402.46377563       0.00100000       0.30000000
  1 9 37     394.30279541       0.00100000       0.30000000
  1 9 38     392.70794678       0.00100000       0.30000000
  1 9 39     389.94100952       0.00100000       0.30000000
  1 9 40     391.46359253       0.00100000       0.30000000
  1 9 41     393.41726685       0.00100000       0.30000000
  1 9 42     394.44415283       0.00100000       0.30000000
  1 9 43     395.10476685       0.00100000       0.30000000
  1 9 44     395.80133057       0.00100000       0.30000000
  1 9 45     396.07104492       0.00100000       0.30000000
  1 9 46     395.63555908       0.00100000       0.30000000
  1 9 47     394.53384399       0.00100000       0.30000000
  1 9 48     393.83770752       0.00100000       0.30000000
  1 9 49     395.55023193       0.00100000       0.30000000
  1 9 50     396.63851929       0.00100000       0.30000000
  1 9 51     394.87353516       0.00100000       0.30000000
  1 9 52     391.61956787       0.00100000       0.30000000
  1 9 53     389.54928589       0.00100000       0.30000000
  1 9 54     387.12878418       0.00100000       0.30000000
  1 9 55     386.90048218       0.00100000       0.30000000
  1 9 56     389.96044922       0.00100000       0.30000000
  1 9 57     392.28213501       0.00100000       0.30000000
  1 9 58     391.14797974       0.00100000       0.30000000
  1 9 59     391.44937134       0.00100000       0.30000000
  1 9 60     394.78024292       0.00100000       0.30000000
  1 9 61     394.88580322       0.00100000       0.30000000
  1 9 62     392.76226807       0.00100000       0.30000000
  1 9 63     391.12243652       0.00100000       0.30000000
  1 9 64     393.38119507       0.00100000       0.30000000
  1 9 65     395.93688965       0.00100000       0.30000000
  1 9 66     395.03778076       0.00100000       0.30000000
  1 9 67     395.73797607       0.00100000       0.30000000
  1 9 68     396.75738525       0.00100000       0.30000000
  1 9 69     397.11230469       0.00100000       0.30000000
  1 9 70     395.65661621       0.00100000       0.30000000
  1 9 71     393.43960571       0.00100000       0.30000000
  1 9 72     393.05908203       0.00100000       0.30000000
  1 9 73     393.32958984       0.00100000       0.30000000
  1 9 74     396.43161011       0.00100000       0.30000000
  1 9 75     397.47396851       0.00100000       0.30000000
  1 9 76     397.47378540       0.00100000       0.30000000
  1 9 77     398.23950195       0.00100000       0.30000000
  1 9 78     398.14495850       0.00100000       0.30000000
  1 9 79     398.17614746       0.00100000       0.30000000
  1 9 80     398.16973877       0.00100000       0.30000000
  1 9 81     398.06634521       0.00100000       0.30000000
  1 9 82     397.51849365       0.00100000       0.30000000
  1 9 83     396.08926392       0.00100000       0.30000000
  1 9 84     395.81051636       0.00100000       0.30000000
  1 9 85     397.00979614       0.00100000       0.30000000
  1 9 86     398.32382202       0.00100000       0.30000000
  1 9 87     399.06262207       0.00100000       0.30000000
  1 9 88     399.49938965       0.00100000       0.30000000
  1 9 89     400.02209473       0.00100000       0.30000000
  1 9 90     399.89385986       0.00100000       0.30000000
  1 9 91     399.91207886       0.00100000       0.30000000
  1 9 92     400.65335083       0.00100000       0.30000000
  1 9 93     401.44876099       0.00100000       0.30000000
  1 9 94     402.06756592       0.00100000       0.30000000
  1 9 95     402.36587524       0.00100000       0.30000000
  1 10 36     393.27359009       0.00100000       0.30000000
  1 10 37     392.66156006       0.00100000       0.30000000
  1 10 38     391.03213501       0.00100000       0.30000000
  1 10 39     388.21151733       0.00100000       0.30000000
  1 10 40     390.21264648       0.00100000       0.30000000
  1 10 41     393.31488037       0.00100000       0.30000000
  1 10 42     394.42071533       0.00100000       0.30000000
  1 10 43     394.75045776       0.00100000       0.30000000
  1 10 44     395.41720581       0.00100000       0.30000000
  1 10 45     394.96353149       0.00100000       0.30000000
  1 10 46     394.83236694       0.00100000       0.30000000
  1 10 47     394.47732544       0.00100000       0.30000000
  1 10 48     392.33993530       0.00100000       0.30000000
  1 10 49     392.86444092       0.00100000       0.30000000
  1 10 50     394.54794312       0.00100000       0.30000000
  1 10 51     394.95977783       0.00100000       0.30000000
  1 10 52     394.11709595       0.00100000       0.30000000
  1 10 53     391.20013428       0.00100000       0.30000000
  1 10 54     387.36471558       0.00100000       0.30000000
  1 10 55     385.35287476       0.00100000       0.30000000
  1 10 56     386.69482422       0.00100000       0.30000000
  1 10 57     388.94113159       0.00100000       0.30000000
  1 10 58     388.59600830       0.00100000       0.30000000
  1 10 59     389.80895996       0.00100000       0.30000000
  1 10 60     392.89761353       0.00100000       0.30000000
  1 10 61     393.64846802       0.00100000       0.30000000
  1 10 62     391.63424683       0.00100000       0.30000000
  1 10 63     389.77288818       0.00100000       0.30000000
  1 10 64     392.35546875       0.00100000       0.30000000
  1 10 65     394.86135864       0.00100000       0.30000000
  1 10 66     393.51571655       0.00100000       0.30000000
  1 10 67     394.31909180       0.00100000       0.30000000
  1 10 68     395.55331421       0.00100000       0.30000000
  1 10 69     395.82586670       0.00100000       0.30000000
  1 10 70     393.79183960       0.00100000       0.30000000
  1 10 71     391.82489014       0.00100000       0.30000000
  1 10 72     393.80099487       0.00100000       0.30000000
  1 10 73     395.15655518       0.00100000       0.30000000
  1 10 74     397.07382202       0.00100000       0.30000000
  1 10 75     396.60986328       0.00100000       0.30000000
  1 10 76     396.08908081       0.00100000       0.30000000
  1 10 77     397.04284668       0.00100000       0.30000000
  1 10 78     396.34667969       0.00100000       0.30000000
  1 10 79     395.38891602       0.00100000       0.30000000
  1 10 80     394.94192505       0.00100000       0.30000000
  1 10 81     395.42535400       0.00100000       0.30000000
  1 10 82     395.58746338       0.00100000       0.30000000
  1 10 83     395.75051880       0.00100000       0.30000000
  1 10 84     396.84103394       0.00100000       0.30000000
  1 10 85     397.40301514       0.00100000       0.30000000
  1 10 86     397.56369019       0.00100000       0.30000000
  1 10 87     397.85217285       0.00100000       0.30000000
  1 10 88     398.24804688       0.00100000       0.30000000
  1 10 89     399.03143311       0.00100000       0.30000000
  1 10 90     399.60183716       0.00100000       0.30000000
  1 10 91     400.16125488       0.00100000       0.30000000
  1 10 92     400.94729614       0.00100000       0.30000000
  1 10 93     401.75726318       0.00100000       0.30000000
  1 10 94     402.40921021       0.00100000       0.30000000
  1 11 33     394.04873657       0.00100000       0.30000000
  1 11 34     393.92373657       0.00100000       0.30000000
  1 11 35     393.89361572       0.00100000       0.30000000
  1 11 36     392.43167114       0.00100000       0.30000000
  1 11 37     390.14578247       0.00100000       0.30000000
  1 11 38     388.82275391       0.00100000       0.30000000
  1 11 39     386.87567139       0.00100000       0.30000000
  1 11 40     389.26739502       0.00100000       0.30000000
  1 11 41     392.84307861       0.00100000       0.30000000
  1 11 42     394.44915771       0.00100000       0.30000000
  1 11 43     394.38995361       0.00100000       0.30000000
  1 11 44     393.91683960       0.00100000       0.30000000
  1 11 45     393.66781616       0.00100000       0.30000000
  1 11 46     394.36129761       0.00100000       0.30000000
  1 11 47     394.58001709       0.00100000       0.30000000
  1 11 48     392.22210693       0.00100000       0.30000000
  1 11 49     390.10379028       0.00100000       0.30000000
  1 11 50     390.58480835       0.00100000       0.30000000
  1 11 51     391.53744507       0.00100000       0.30000000
  1 11 52     393.11611938       0.00100000       0.30000000
  1 11 53     390.92477417       0.00100000       0.30000000
  1 11 54     387.62026978       0.00100000       0.30000000
  1 11 55     384.88372803       0.00100000       0.30000000
  1 11 56     383.96176147       0.00100000       0.30000000
  1 11 57     385.46463013       0.00100000       0.30000000
  1 11 58     386.17501831       0.00100000       0.30000000
  1 11 59     388.14093018       0.00100000       0.30000000
  1 11 60     390.71807861       0.00100000       0.30000000
  1 11 61     392.94265747       0.00100000       0.30000000
  1 11 62     391.40319824       0.00100000       0.30000000
  1 11 63     388.89422607       0.00100000       0.30000000
  1 11 64     391.48107910       0.00100000       0.30000000
  1 11 65     393.07849121       0.00100000       0.30000000
  1 11 66     391.89605713       0.00100000       0.30000000
  1 11 67     393.13000488       0.00100000       0.30000000
  1 11 68     394.29098511       0.00100000       0.30000000
  1 11 69     394.66772461       0.00100000       0.30000000
  1 11 70     391.89431763       0.00100000       0.30000000
  1 11 71     392.70812988       0.00100000       0.30000000
  1 11 72     396.31838989       0.00100000       0.30000000
  1 11 73     397.07824707       0.00100000       0.30000000
  1 11 74     396.83630371       0.00100000       0.30000000
  1 11 75     395.27191162       0.00100000       0.30000000
  1 11 76     394.10592651       0.00100000       0.30000000
  1 11 77     394.73837280       0.00100000       0.30000000
  1 11 78     394.12786865       0.00100000       0.30000000
  1 11 79     393.72033691       0.00100000       0.30000000
  1 11 80     395.02694702       0.00100000       0.30000000
  1 11 81     396.46765137       0.00100000       0.30000000
  1 11 82     396.82211304       0.00100000       0.30000000
  1 11 83     397.44912720       0.00100000       0.30000000
  1 11 84     397.93151855       0.00100000       0.30000000
  1 11 85     398.90499878       0.00100000       0.30000000
  1 11 86     399.13107300       0.00100000       0.30000000
  1 11 87     399.28753662       0.00100000       0.30000000
  1 11 88     399.07696533       0.00100000       0.30000000
  1 11 89     399.12637329       0.00100000       0.30000000
  1 11 90     399.74368286       0.00100000       0.30000000
  1 11 91     400.41952515       0.00100000       0.30000000
  1 11 92     401.28881836       0.00100000       0.30000000
  1 11 93     401.96597290       0.00100000       0.30000000
  1 12 33     391.68353271       0.00100000       0.30000000
  1 12 34     391.18289185       0.00100000       0.30000000
  1 12 35     392.59848022       0.00100000       0.30000000
  1 12 36     392.11444092       0.00100000       0.30000000
  1 12 37     389.03439331       0.00100000       0.30000000
  1 12 38     386.75979614       0.00100000       0.30000000
  1 12 39     386.02954102       0.00100000       0.30000000
  1 12 40     389.60147095       0.00100000       0.30000000
  1 12 41     393.11755371       0.00100000       0.30000000
  1 12 42     394.58145142       0.00100000       0.30000000
  1 12 43     394.44573975       0.00100000       0.30000000
  1 12 44     392.95028687       0.00100000       0.30000000
  1 12 45     392.39273071       0.00100000       0.30000000
  1 12 46     393.93316650       0.00100000       0.30000000
  1 12 47     394.28399658       0.00100000       0.30000000
  1 12 48     393.09237671       0.00100000       0.30000000
  1 12 49     389.82135010       0.00100000       0.30000000
  1 12 50     387.92404175       0.00100000       0.30000000
  1 12 51     388.68060303       0.00100000       0.30000000
  1 12 52     391.10092163       0.00100000       0.30000000
  1 12 53     391.89932251       0.00100000       0.30000000
  1 12 54     390.01736450       0.00100000       0.30000000
  1 12 55     386.51620483       0.00100000       0.30000000