# File generated by Flopy version 3.8.2 on 11/07/2024 at 18:43:43.
BEGIN options
END options

BEGIN dimensions
  NLAY  1
  NROW  100
  NCOL  100
END dimensions

BEGIN griddata
  delr
    INTERNAL  FACTOR  1.0
        38.70000596      38.70000596      38.70000596      38.70000596      38.70000596      38.70000596      38.70000596      38.70000596      38.70000596      38.70000596      38.70000596      38.70000596      38.70000596      38.70000596      38.70000596      38.70000596      38.70000596      38.70000596      38.70000596      38.70000596      38.70000596      38.70000596      38.70000596      38.70000596      38.70000596      38.70000596      38.70000596      38.70000596      38.70000596      38.70000596      38.70000596      38.70000596      38.70000596      38.70000596      38.70000596      38.70000596      38.70000596      38.70000596      38.70000596      38.70000596      38.70000596      38.70000596      38.70000596      38.70000596      38.70000596      38.70000596      38.70000596      38.70000596      38.70000596      38.70000596      38.70000596      38.70000596      38.70000596      38.70000596      38.70000596      38.70000596      38.70000596      38.70000596      38.70000596      38.70000596      38.70000596      38.70000596      38.70000596      38.70000596      38.70000596      38.70000596      38.70000596      38.70000596      38.70000596      38.70000596      38.70000596      38.70000596      38.70000596      38.70000596      38.70000596      38.70000596      38.70000596      38.70000596      38.70000596      38.70000596      38.70000596      38.70000596      38.70000596      38.70000596      38.70000596      38.70000596      38.70000596      38.70000596      38.70000596      38.70000596      38.70000596      38.70000596      38.70000596      38.70000596      38.70000596      38.70000596      38.70000596      38.70000596      38.70000596      38.70000596
  delc
    INTERNAL  FACTOR  1.0
        33.00000507      33.00000507      33.00000507      33.00000507      33.00000507      33.00000507      33.00000507      33.00000507      33.00000507      33.00000507      33.00000507      33.00000507      33.00000507      33.00000507      33.00000507      33.00000507      33.00000507      33.00000507      33.00000507      33.00000507      33.00000507      33.00000507      33.00000507      33.00000507      33.00000507      33.00000507      33.00000507      33.00000507      33.00000507      33.00000507      33.00000507      33.00000507      33.00000507      33.00000507      33.00000507      33.00000507      33.00000507      33.00000507      33.00000507      33.00000507      33.00000507      33.00000507      33.00000507      33.00000507      33.00000507      33.00000507      33.00000507      33.00000507      33.00000507      33.00000507      33.00000507      33.00000507      33.00000507      33.00000507      33.00000507      33.00000507      33.00000507      33.00000507      33.00000507      33.00000507      33.00000507      33.00000507      33.00000507      33.00000507      33.00000507      33.00000507      33.00000507      33.00000507      33.00000507      33.00000507      33.00000507      33.00000507      33.00000507      33.00000507      33.00000507      33.00000507      33.00000507      33.00000507      33.00000507      33.00000507      33.00000507      33.00000507      33.00000507      33.00000507      33.00000507      33.00000507      33.00000507      33.00000507      33.00000507      33.00000507      33.00000507      33.00000507      33.00000507      33.00000507      33.00000507      33.00000507      33.00000507      33.00000507      33.00000507      33.00000507
  top
    INTERNAL  FACTOR  1.0
       376.38442993     378.94210815     380.05920410     378.34362793     375.98098755     375.75079346     375.27197266     371.45104980     369.53143311     370.60147095     372.88766479     375.72186279     378.56741333     381.00704956     383.04165649     384.55639648     385.79470825     386.99581909     387.98715210     388.96728516     389.39578247     389.83642578     390.27288818     390.94030762     392.17755127     393.77758789     394.25701904     394.98132324     395.23190308     394.76278687     394.45669556     394.14849854     393.67480469     393.51913452     394.00247192     394.06567383     393.92773438     393.29104614     392.57119751     392.61959839     392.59210205     391.38082886     389.95291138     389.34451294     389.53430176     389.57736206     387.90576172     386.27346802     385.40927124     385.99203491     387.58905029     389.22619629     390.47067261     390.91943359     390.56164551     389.86532593     388.98986816     388.31930542     387.01272583     385.04763794     382.51940918     380.33941650     379.49728394     379.90017700     379.76495361     378.86514282     377.11395264     375.76235962     374.82238770     374.22274780     373.19421387     372.25750732     371.65621948     371.21823120     370.79449463     370.15930176     369.34432983     368.76339722     368.47134399     368.24645996     368.00720215     367.95062256     368.95468140     369.44509888     369.74822998     370.33258057     369.69189453     368.12710571     366.89065552     366.43173218     366.23605347     365.72412109     364.98620605     364.45590210     363.62142944     363.20297241     363.45806885     364.11581421     364.95144653     365.28689575
       374.93536377     379.62359619     378.49511719     376.13107300     375.02719116     374.19134521     375.33053589     371.96072388     369.11968994     370.31939697     372.94802856     375.89273071     377.46386719     378.66174316     380.35037231     382.44012451     384.15933228     385.19714355     385.86923218     386.17239380     386.57843018     387.35427856     388.36944580     389.48559570     390.91485596     392.02667236     392.79782104     393.82864380     394.00177002     393.46432495     393.23873901     393.65798950     394.25820923     394.59991455     394.43576050     393.84136963     393.49526978     393.25393677     392.89083862     392.79425049     392.34918213     391.57556152     391.30978394     391.26214600     390.42666626     389.09320068     387.76693726     386.61532593     386.05941772     387.35760498     389.01995850     390.11737061     390.95809937     391.26492310     391.23410034     390.82546997     389.70773315     388.75027466     388.66735840     387.76022339     386.17413330     385.03268433     383.52624512     384.13146973     383.50289917     380.74960327     379.48873901     378.67874146     377.90661621     377.95202637     376.27236938     374.25680542     373.51675415     373.82192993     373.30078125     371.69702148     370.33605957     369.27548218     368.46084595     368.03631592     367.95727539     367.75250244     367.64880371     367.88684082     368.75869751     369.57907104     369.13555908     367.92449951     366.43719482     365.05932617     364.14715576     363.65304565     363.21911621     362.89163208     362.58554077     362.29360962     362.02722168     361.81695557     361.67559814     361.57238770
       369.57363892     371.86550903     369.91278076     369.79656982     370.67721558     370.77828979     371.09811401     371.32690430     372.10671997     371.44058228     372.25503540     374.68002319     377.20370483     379.32073975     380.06680298     380.04345703     380.58517456     381.58349609     382.56774902     383.64254761     385.23312378     386.67703247     388.21173096     389.47793579     390.39907837     390.81762695     391.30511475     392.38745117     392.48941040     391.38256836     391.62182617     392.92672729     394.00921631     394.51208496     394.58880615     393.88989258     392.81826782     392.14422607     392.00006104     392.17388916     392.01889038     391.34732056     390.67056274     389.77377319     388.86883545     387.99588013     387.22613525     386.94799805     387.03695679     388.28933716     389.96807861     390.41680908     390.12448120     389.85711670     389.86914062     389.51455688     388.25799561     387.21002197     387.16125488     387.45928955     387.27352905     387.26608276     387.29940796     387.68789673     386.03567505     383.56924438     383.79022217     383.60333252     381.87545776     380.79266357     377.87161255     376.13037109     376.70819092     377.93002319     376.45141602     373.80334473     371.85568237     370.74053955     370.28186035     369.96456909     369.74981689     370.03381348     370.73852539     370.08465576     367.66247559     368.32223511     368.84814453     367.82904053     366.16201782     364.82983398     364.15280151     363.74035645     363.33901978     362.98147583     362.54998779     362.24316406     361.93341064     361.83557129     361.72726440     361.61798096
       370.12280273     368.31713867     367.60699463     372.76654053     375.61917114     374.83666992     374.75955200     376.74371338     377.50106812     376.01870728     374.55120850     375.01104736     376.41018677     378.12762451     380.33132935     381.65911865     381.28341675     381.64822388     382.37753296     383.60824585     384.68859863     385.81930542     387.48587036     388.73306274     389.40350342     389.04901123     389.14169312     389.40765381     389.27355957     389.51116943     390.74609375     391.93939209     392.86242676     393.74514771     394.14956665     393.83285522     392.73120117     391.55880737     391.03475952     391.31417847     391.17379761     390.71142578     390.88891602     390.77157593     390.58374023     390.17999268     389.58911133     388.99221802     389.26708984     389.49215698     389.44830322     389.62734985     388.84552002     388.24331665     387.89492798     387.25994873     386.16595459     385.31127930     384.41064453     384.27770996     384.40838623     385.33071899     386.75872803     387.88290405     387.31332397     386.53082275     386.92126465     386.13064575     383.60552979     381.10345459     379.66381836     379.48718262     380.91809082     380.31481934     377.77307129     375.34228516     373.27124023     373.24160767     373.97564697     373.28622437     372.51956177     373.54714966     374.53298950     374.25903320     370.23315430     366.75576782     367.76620483     367.32608032     365.54928589     364.93862915     364.90832520     364.62646484     364.07443237     363.49160767     363.12081909     362.99166870     362.75836182     362.60327148     362.79095459     362.81930542
       382.56979370     380.51522827     373.48928833     370.13598633     377.34515381     381.13436890     380.06979370     379.92575073     380.50656128     379.95776367     379.50424194     379.52590942     380.97879028     381.41461182     381.63015747     383.35217285     383.69857788     383.73184204     384.44119263     385.37811279     386.18151855     386.66683960     387.34237671     387.83956909     388.01791382     387.22103882     386.45516968     387.07937622     388.07229614     389.33233643     390.64657593     392.00802612     393.15258789     393.11413574     392.81613159     392.28649902     391.34362793     390.95135498     391.05059814     391.57543945     391.91125488     391.57641602     391.75421143     392.09027100     391.96594238     391.64352417     391.15139771     390.82470703     390.96878052     390.49719238     389.56021118     389.05291748     388.22851562     387.50656128     387.35269165     387.30563354     386.88891602     386.12994385     385.18524170     384.24969482     383.11285400     382.63378906     383.12493896     384.40243530     384.56457520     385.69952393     386.49221802     385.61593628     384.74493408     383.80825806     383.64434814     384.08074951     384.30337524     381.13018799     379.12374878     377.48788452     375.73187256     375.60028076     377.40951538     377.58526611     376.41506958     376.88061523     377.23229980     375.84170532     373.14450073     369.65112305     367.86682129     367.91635132     369.49847412     370.66781616     370.08956909     368.55154419     366.46038818     364.57702637     363.48971558     363.22668457     363.43457031     364.88793945     365.54272461     365.45831299
       385.44653320     385.55218506     382.09625244     373.33377075     371.07998657     376.71044922     377.25814819     376.92898560     377.81109619     379.97943115     381.13760376     382.05059814     383.96310425     385.25720215     385.35317993     385.66430664     386.03625488     386.71371460     387.22039795     387.12057495     386.91549683     386.59774780     386.85766602     387.12789917     386.63116455     385.62347412     385.87344360     387.71032715     389.02185059     389.90121460     390.81323242     391.89669800     392.87710571     392.58825684     391.76910400     390.96649170     390.84744263     392.12371826     392.63964844     392.82601929     393.33889771     393.38351440     393.21707153     393.01348877     392.61907959     392.18023682     391.69061279     391.35675049     390.96417236     390.52169800     389.90863037     389.84188843     389.77639771     389.40762329     389.42007446     389.66665649     389.79888916     388.93469238     388.08740234     386.45953369     384.18194580     382.56445312     381.70062256     381.26867676     381.84115601     383.71691895     384.09063721     383.55612183     384.16836548     383.74279785     384.51431274     385.65457153     385.32479858     383.38842773     382.13806152     380.34844971     379.38244629     378.60296631     378.81213379     380.03744507     379.29330444     378.26089478     378.34234619     378.70989990     378.33447266     376.22537231     376.20584106     376.43377686     376.83068848     375.12738037     372.59515381     369.71566772     367.22598267     365.03170776     363.86306763     363.94219971     365.81954956     368.51644897     369.42706299     369.48336792
       386.48269653     386.25988770     384.98199463     381.14459229     372.79925537     371.06237793     371.79928589     373.00933838     374.37750244     377.56921387     379.82714844     381.96853638     383.88265991     383.66729736     384.20416260     384.40447998     384.64547729     386.39529419     387.26907349     387.12527466     386.68899536     385.63644409     384.96511841     385.51818848     384.55529785     383.89764404     385.03903198     387.31927490     388.85360718     389.83215332     390.80166626     391.52331543     391.66110229     391.28018188     390.42306519     390.10473633     390.94186401     392.13851929     393.15002441     393.69775391     393.88668823     394.35485840     394.49215698     393.84466553     393.23617554     392.98330688     392.51614380     392.04788208     391.79495239     391.81335449     391.66271973     391.92672729     391.79562378     391.09597778     390.85665894     390.96643066     391.08316040     389.88659668     388.34246826     386.84371948     385.44055176     384.29940796     382.90664673     381.37799072     380.52395630     380.80911255     381.08819580     381.16430664     381.59133911     381.89022827     383.34954834     384.08001709     383.50601196     382.28781128     381.04946899     380.40127563     380.39682007     380.68423462     380.27667236     380.26522827     380.55984497     380.46289062     381.36843872     383.15451050     383.20532227     382.15518188     381.35638428     380.08181763     378.11877441     374.76785278     370.98397827     368.20822144     366.38619995     364.95071411     364.45227051     365.42010498     368.43133545     371.43261719     372.65582275     372.88998413
       387.40438843     386.18954468     384.24798584     381.40966797     377.21368408     376.81127930     377.20046997     378.51379395     375.96588135     374.82620239     378.69631958     380.92913818     381.61334229     380.02621460     380.08047485     381.09936523     382.79385376     384.88671875     385.72045898     385.21609497     384.29785156     382.85922241     382.50256348     383.07043457     382.85946655     383.47460938     384.65246582     385.62200928     386.81430054     388.27578735     389.44744873     389.97750854     389.97586060     389.36941528     388.87582397     389.97085571     391.01931763     391.73718262     392.48571777     393.02932739     393.30841064     393.60241699     393.75482178     393.58779907     393.30328369     392.93395996     392.64944458     392.72900391     392.89724731     393.32925415     393.18850708     392.48602295     391.45809937     390.20504761     389.14263916     388.81860352     389.26501465     389.25827026     388.37219238     387.98574829     387.34347534     386.27578735     385.05407715     383.11767578     381.20431519     379.95031738     379.39532471     379.50347900     379.64916992     380.12094116     381.73291016     381.95611572     380.32681274     379.20721436     378.05444336     377.64910889     377.95385742     378.27258301     376.98220825     376.28930664     376.69958496     377.47650146     380.47607422     383.36886597     384.10879517     382.67108154     381.75988770     379.78210449     377.04055786     373.31292725     370.34188843     368.57150269     366.75924683     365.53512573     365.69906616     367.84237671     370.71725464     373.78268433     375.73208618     376.40408325
       387.74459839     386.48049927     383.78518677     380.62319946     380.27612305     382.43356323     383.66665649     383.67803955     381.06069946     375.89807129     375.55389404     377.00720215     377.79425049     377.11209106     377.32122803     378.27786255     379.17141724     380.32870483     381.13101196     381.67538452     382.66662598     383.93569946     384.79769897     384.54675293     383.51742554     383.27902222     383.61236572     384.20007324     385.87371826     387.41662598     388.19332886     388.47427368     388.32757568     388.18920898     389.29205322     390.76660156     391.69436646     392.33340454     392.82550049     393.08853149     393.18051147     393.49246216     393.65283203     393.71795654     393.84881592     393.72534180     393.58081055     393.38833618     392.91818237     393.13742065     392.94750977     392.24774170     391.37002563     390.11550903     388.74841309     387.51550293     386.76974487     386.92742920     386.27023315     385.61831665     384.81954956     384.03347778     383.12591553     382.02951050     380.95046997     380.04782104     380.26269531     381.26617432     381.68051147     381.07586670     379.36688232     378.21224976     379.61169434     379.43679810     377.23587036     375.49877930     375.21673584     374.95928955     374.02770996     373.11865234     372.99963379     374.86666870     378.35137939     379.43115234     379.97726440     377.32608032     375.52713013     373.94989014     373.02969360     370.66085815     368.68151855     367.70205688     366.42227173     366.04620361     367.65585327     370.12734985     373.37203979     376.44699097     378.34597778     379.19882202
       387.37390137     385.51925659     384.04974365     382.95578003     383.97006226     385.57171631     386.21359253     384.41183472     381.57962036     381.92654419     380.81039429     377.83575439     376.44155884     375.93609619     376.54833984     377.30584717     379.70913696     382.94949341     385.04568481     386.39678955     387.93283081     388.88482666     389.43707275     389.80581665     388.90139771     386.68148804     385.47085571     384.78845215     384.65298462     385.16912842     385.85937500     386.41333008     387.74475098     389.56478882     390.97201538     391.93786621     392.60739136     392.98715210     393.50503540     393.85113525     393.91888428     393.84683228     394.19073486     394.60324097     394.71026611     394.72549438     394.41500854     393.88845825     392.86315918     391.66784668     390.90863037     389.88943481     389.14947510     388.54916382     387.61990356     386.61859131     385.70281982     385.29071045     384.67904663     383.94589233     383.27117920     382.59954834     381.81838989     381.07794189     380.68917847     381.02606201     382.45779419     384.47933960     385.85317993     384.58441162     380.87579346     381.73583984     386.04034424     385.84994507     383.31021118     380.62399292     377.73919678     375.46450806     373.31826782     372.00695801     371.56597900     371.80474854     372.62097168     372.14859009     372.41433716     372.79931641     372.88128662     371.40103149     370.13784790     368.65505981     367.46972656     367.28613281     367.58999634     368.33526611     370.88293457     372.87344360     374.56256104     378.08877563     380.57296753     381.58615112
       387.42013550     387.35992432     387.22982788     386.28323364     385.82925415     386.29281616     386.15338135     384.20996094     383.80090332     386.50878906     386.39141846     384.60107422     381.51187134     378.63867188     378.68136597     379.97744751     379.41989136     382.84957886     385.72918701     387.48144531     388.58996582     389.57067871     390.41281128     390.80047607     391.01889038     389.52532959     389.20169067     388.91101074     387.44329834     386.61007690     385.96255493     385.93908691     387.34658813     389.17150879     390.53277588     391.74328613     392.54159546     393.24053955     393.76797485     394.14874268     394.50497437     394.60031128     394.84426880     395.01513672     394.77661133     394.40161133     393.70126343     392.76519775     392.25158691     391.34161377     390.13763428     388.70248413     387.42767334     386.48092651     385.96151733     385.57559204     385.33108521     385.19241333     384.94781494     385.09484863     384.80816650     383.98287964     382.75738525     381.90576172     381.89205933     382.83728027     384.10922241     385.20266724     384.34680176     382.35934448     383.44906616     386.94879150     388.28054810     387.52120972     385.79470825     383.40472412     379.80264282     376.44421387     373.61682129     372.58462524     373.96545410     376.13922119     378.69256592     376.61111450     378.09002686     379.97778320     377.38482666     374.34402466     372.23202515     369.88201904     368.99826050     369.24661255     370.12521362     371.02618408     372.88787842     376.48870850     378.36575317     379.55932617     381.79803467     383.11288452
       386.64874268     387.75534058     387.98956299     387.66992188     387.72476196     387.38000488     386.72546387     386.19094849     384.84362793     386.71453857     387.70385742     386.37298584     383.75350952     381.37518311     382.37332153     383.10778809     380.54464722     381.26928711     384.42028809     386.43225098     387.91857910     388.71353149     389.73147583     390.90795898     391.48269653     390.77163696     390.46591187     391.21295166     391.10699463     389.96148682     388.34228516     387.83004761     387.00866699     387.34414673     388.31900024     389.72317505     391.17687988     392.72906494     393.83621216     394.62850952     395.12011719     394.99856567     394.91326904     394.39767456     393.23471069     392.28073120     391.41702271     390.66705322     389.96676636     389.32156372     388.28817749     387.42486572     386.80514526     386.87530518     387.79675293     388.27288818     387.93783569     387.06481934     386.55334473     386.09539795     385.22799683     384.27951050     383.33871460     382.88909912     383.47875977     384.67480469     384.78997803     383.56198120     383.19213867     385.55532837     387.90914917     388.12326050     386.51394653     384.91650391     384.01214600     381.78198242     377.93685913     374.74014282     373.96316528     376.33993530     380.77618408     383.87454224     383.46112061     379.92773438     382.10638428     381.88177490     379.25195312     376.68331909     373.85037231     370.84902954     371.27502441     372.80514526     373.27798462     374.05099487     374.45327759     376.85684204     380.84390259     383.32138062     384.98544312     385.88693237
       386.78753662     387.89242554     388.55804443     389.23031616     389.33016968     389.29132080     388.85272217     387.78073120     386.12161255     386.35238647     387.28057861     387.13580322     386.55346680     385.00430298     384.56323242     383.00070190     381.05163574     381.28811646     383.89257812     386.19967651     388.55264282     389.82229614     390.37408447     391.07382202     391.53979492     391.49539185     391.48474121     391.77444458     391.73147583     390.73291016     390.59375000     390.80960083     389.63479614     389.10775757     388.54550171     388.39291382     389.19641113     390.79660034     392.16369629     393.12503052     393.36065674     393.40673828     393.79577637     393.63143921     392.63739014     391.31512451     390.30743408     389.83187866     388.86035156     388.27221680     387.86285400     387.92306519     388.58251953     389.49343872     390.92395020     391.30096436     389.95373535     388.07839966     386.73150635     386.14337158     386.05111694     384.89770508     384.01791382     384.04827881     384.84222412     385.55633545     384.54077148     385.18029785     387.49276733     388.83804321     389.03771973     387.07595825     384.20315552     381.65509033     379.96237183     378.36511230     376.07968140     375.16354370     376.94476318     381.20660400     384.60421753     386.80618286     385.35366821     382.74050903     385.01559448     384.51986694     382.30664062     378.61813354     374.41680908     372.05102539     373.91302490     376.38677979     377.20788574     378.30648804     378.28762817     377.75836182     381.12197876     384.91601562     387.09564209     388.00729370
       388.27014160     388.65274048     388.93716431     389.51843262     389.78884888     389.90713501     389.22091675     387.89025879     387.22613525     387.55560303     387.99743652     387.86813354     388.11285400     386.69949341     383.80749512     382.08316040     381.26910400     381.87319946     384.47640991     386.60488892     388.19183350     389.71276855     390.89077759     391.66595459     392.06057739     392.71578979     393.23361206     392.89819336     392.72131348     392.59185791     392.60424805     392.74932861     392.16134644     392.41604614     392.03674316     390.92831421     389.70837402     389.71319580     390.28378296     390.85079956     391.72409058     392.95407104     393.70251465     393.77136230     393.06979370     392.38830566     391.84103394     391.37615967     390.21295166     389.34094238     389.59844971     390.44509888     391.67074585     392.64358521     392.91464233     392.83761597     391.19970703     389.40835571     388.30380249     388.27093506     388.01000977     386.73852539     386.20309448     386.78067017     386.88690186     386.19403076     384.98492432     388.19174194     390.23751831     390.02868652     388.33541870     385.79296875     383.53646851     381.78881836     379.46908569     377.59991455     376.76376343     376.95742798     379.98233032     384.14025879     386.91632080     389.02850342     388.35723877     385.10900879     385.61331177     385.13742065     382.29052734     379.09716797     375.40084839     373.65695190     376.25045776     379.57684326     380.40795898     381.88302612     382.72564697     381.16113281     381.95336914     385.08425903     387.05609131     387.87985229
       389.95745850     390.07260132     390.12194824     390.27227783     390.47616577     390.30950928     389.37863159     388.61041260     388.98995972     389.30786133     389.23336792     388.92773438     389.02233887     387.75961304     385.63281250     384.21939087     383.03469849     382.35394287     384.00985718     385.79962158     387.31497192     388.54507446     389.49954224     390.40310669     391.47387695     392.54904175     393.49688721     394.00650024     394.49896240     394.66043091     394.56210327     394.43884277     394.34796143     394.47311401     394.19454956     392.81848145     391.01150513     391.16485596     391.89755249     391.56634521     391.29153442     391.67965698     392.38265991     393.00000000     393.14437866     393.62738037     394.13677979     393.71508789     392.19015503     391.16567993     391.91491699     393.16384888     393.94335938     394.14035034     393.98342896     394.01040649     393.60714722     392.07772827     390.58123779     389.95785522     389.72186279     388.86785889     388.50390625     388.26791382     387.37551880     386.09945679     385.78631592     389.05273438     390.98315430     390.93103027     388.88345337     386.45748901     384.96096802     383.00488281     380.92196655     379.88967896     378.40924072     378.30645752     381.23126221     384.79138184     387.58956909     389.84426880     389.55944824     386.70993042     385.90316772     385.31173706     382.72766113     380.03182983     376.94226074     375.62329102     378.30056763     382.07492065     383.11782837     383.35562134     384.97372437     385.87429810     385.59445190     386.55624390     386.91653442     386.96017456