# File generated by Flopy version 3.8.2 on 11/26/2024 at 15:46:17.
BEGIN options
  BUDGET  FILEOUT  EPM_wsgrid.bud
  HEAD  FILEOUT  EPM_wsgrid.hds
END options

BEGIN period  1
  SAVE  HEAD  ALL
  SAVE  BUDGET  ALL
  PRINT  HEAD  ALL
  PRINT  BUDGET  ALL
END period  1

