# File generated by Flopy version 3.8.2 on 11/07/2024 at 18:43:43.
BEGIN options
  READASARRAYS
END options

BEGIN period  1
  recharge
    CONSTANT       0.00100000
END period  1

