# File generated by Flopy version 3.8.2 on 11/07/2024 at 18:43:43.
BEGIN options
END options

BEGIN timing
  TDIS6  EPM_wsgrid.tdis
END timing

BEGIN models
  gwf6  EPM_wsgrid.nam  EPM_wsgrid
END models

BEGIN exchanges
END exchanges

BEGIN solutiongroup  1
  ims6  EPM_wsgrid.ims  EPM_wsgrid
END solutiongroup  1

