# File generated by Flopy version 3.8.2 on 11/26/2024 at 16:29:50.
BEGIN options
  SAVE_SPECIFIC_DISCHARGE
END options

BEGIN griddata
  icelltype
    CONSTANT  0
  k  LAYERED
    CONSTANT      18.28800000
    CONSTANT     914.40000000
    CONSTANT       3.04800000
  k33  LAYERED
    CONSTANT       0.18288000
    CONSTANT       6.09600000
    CONSTANT  3.04800000E-05
END griddata

