# File generated by Flopy version 3.8.2 on 11/25/2024 at 14:13:33.
BEGIN options
  SAVE_FLOWS
  NEWTON  UNDER_RELAXATION
END options

BEGIN packages
  RCH6  EPM_wsgrid.rcha  rch
  DIS6  EPM_wsgrid.dis  dis
END packages

