# File generated by Flopy version 3.8.2 on 11/26/2024 at 12:38:39.
BEGIN options
  TIME_UNITS  days
END options

BEGIN dimensions
  NPER  30
END dimensions

BEGIN perioddata
       1.00000000  24       1.00000000
       1.00000000  24       1.00000000
       1.00000000  24       1.00000000
       1.00000000  24       1.00000000
       1.00000000  24       1.00000000
       1.00000000  24       1.00000000
       1.00000000  24       1.00000000
       1.00000000  24       1.00000000
       1.00000000  24       1.00000000
       1.00000000  24       1.00000000
       1.00000000  24       1.00000000
       1.00000000  24       1.00000000
       1.00000000  24       1.00000000
       1.00000000  24       1.00000000
       1.00000000  24       1.00000000
       1.00000000  24       1.00000000
       1.00000000  24       1.00000000
       1.00000000  24       1.00000000
       1.00000000  24       1.00000000
       1.00000000  24       1.00000000
       1.00000000  24       1.00000000
       1.00000000  24       1.00000000
       1.00000000  24       1.00000000
       1.00000000  24       1.00000000
       1.00000000  24       1.00000000
       1.00000000  24       1.00000000
       1.00000000  24       1.00000000
       1.00000000  24       1.00000000
       1.00000000  24       1.00000000
       1.00000000  24       1.00000000
END perioddata

